<?xml version="1.0" encoding="UTF-8"?>
<!-- generated on 2021-11-07 06:40:40.466039 by $Id$ UNKNOWN
  options: -n sumo2morai/sumo/nets/suburb_02.net.xml -e 3600 -r sumo2morai/sumo/routes/suburb_02.rou.xml <doubleminus>period 5 <doubleminus>binomial 5 <doubleminus>trip-attributes departLane="0" departSpeed="max" departPos="0"
-->
<routes xmlns:xsi="http://www.w3.org/2001/XMLSchema-instance" xsi:noNamespaceSchemaLocation="http://sumo.dlr.de/xsd/routes_file.xsd">
    <trip id="0" depart="0.00" from="-20.0.00" to="-19.0.00" departLane="0" departSpeed="max" departPos="0"/>
    <trip id="1" depart="1.00" from="-18.0.00" to="0.0.00" departLane="0" departSpeed="max" departPos="0"/>
    <trip id="2" depart="1.00" from="-17.0.00" to="15.0.00" departLane="0" departSpeed="max" departPos="0"/>
    <trip id="3" depart="2.00" from="22.0.00" to="17.0.00" departLane="0" departSpeed="max" departPos="0"/>
    <trip id="4" depart="11.00" from="-22.0.00" to="-20.0.00" departLane="0" departSpeed="max" departPos="0"/>
    <trip id="5" depart="18.00" from="19.0.00" to="16.0.00" departLane="0" departSpeed="max" departPos="0"/>
    <trip id="6" depart="22.00" from="-22.0.00" to="-0.0.00" departLane="0" departSpeed="max" departPos="0"/>
    <trip id="7" depart="51.00" from="23.0.00" to="-22.0.00" departLane="0" departSpeed="max" departPos="0"/>
    <trip id="8" depart="54.00" from="21.0.00" to="14.0.00" departLane="0" departSpeed="max" departPos="0"/>
    <trip id="9" depart="55.00" from="-11.0.00" to="3.0.00" departLane="0" departSpeed="max" departPos="0"/>
    <trip id="10" depart="60.00" from="2.0.00" to="-23.0.00" departLane="0" departSpeed="max" departPos="0"/>
    <trip id="11" depart="64.00" from="-17.0.00" to="-23.0.00" departLane="0" departSpeed="max" departPos="0"/>
    <trip id="12" depart="68.00" from="6.0.00" to="1.0.00" departLane="0" departSpeed="max" departPos="0"/>
    <trip id="13" depart="73.00" from="-20.0.00" to="-6.0.00" departLane="0" departSpeed="max" departPos="0"/>
    <trip id="14" depart="77.00" from="-19.0.00" to="-8.0.00" departLane="0" departSpeed="max" departPos="0"/>
    <trip id="15" depart="79.00" from="20.0.00" to="2.0.00" departLane="0" departSpeed="max" departPos="0"/>
    <trip id="16" depart="89.00" from="-23.0.00" to="2.0.00" departLane="0" departSpeed="max" departPos="0"/>
    <trip id="17" depart="91.00" from="-23.0.00" to="16.0.00" departLane="0" departSpeed="max" departPos="0"/>
    <trip id="18" depart="93.00" from="-3.0.00" to="11.0.00" departLane="0" departSpeed="max" departPos="0"/>
    <trip id="19" depart="93.00" from="14.0.00" to="-14.0.00" departLane="0" departSpeed="max" departPos="0"/>
    <trip id="20" depart="95.00" from="1.0.00" to="9.0.00" departLane="0" departSpeed="max" departPos="0"/>
    <trip id="21" depart="97.00" from="-15.0.00" to="-14.0.00" departLane="0" departSpeed="max" departPos="0"/>
    <trip id="22" depart="99.00" from="-21.0.00" to="16.0.00" departLane="0" departSpeed="max" departPos="0"/>
    <trip id="23" depart="108.00" from="24.0.00" to="-16.0.00" departLane="0" departSpeed="max" departPos="0"/>
    <trip id="24" depart="110.00" from="7.0.00" to="-12.0.00" departLane="0" departSpeed="max" departPos="0"/>
    <trip id="25" depart="117.00" from="1.0.00" to="-21.0.00" departLane="0" departSpeed="max" departPos="0"/>
    <trip id="26" depart="126.00" from="-6.0.00" to="12.0.00" departLane="0" departSpeed="max" departPos="0"/>
    <trip id="27" depart="132.00" from="-5.0.00" to="-23.0.00" departLane="0" departSpeed="max" departPos="0"/>
    <trip id="28" depart="154.00" from="0.0.00" to="12.0.00" departLane="0" departSpeed="max" departPos="0"/>
    <trip id="29" depart="158.00" from="-11.0.00" to="14.0.00" departLane="0" departSpeed="max" departPos="0"/>
    <trip id="30" depart="164.00" from="22.0.00" to="4.0.00" departLane="0" departSpeed="max" departPos="0"/>
    <trip id="31" depart="178.00" from="1.0.00" to="-7.0.00" departLane="0" departSpeed="max" departPos="0"/>
    <trip id="32" depart="180.00" from="3.0.00" to="10.0.00" departLane="0" departSpeed="max" departPos="0"/>
    <trip id="33" depart="185.00" from="-24.0.00" to="-7.0.00" departLane="0" departSpeed="max" departPos="0"/>
    <trip id="34" depart="189.00" from="21.0.00" to="-2.0.00" departLane="0" departSpeed="max" departPos="0"/>
    <trip id="35" depart="191.00" from="25.0.00" to="-14.0.00" departLane="0" departSpeed="max" departPos="0"/>
    <trip id="36" depart="192.00" from="-0.0.00" to="20.0.00" departLane="0" departSpeed="max" departPos="0"/>
    <trip id="37" depart="210.00" from="6.0.00" to="22.0.00" departLane="0" departSpeed="max" departPos="0"/>
    <trip id="38" depart="211.00" from="25.0.00" to="11.0.00" departLane="0" departSpeed="max" departPos="0"/>
    <trip id="39" depart="212.00" from="2.0.00" to="-19.0.00" departLane="0" departSpeed="max" departPos="0"/>
    <trip id="40" depart="217.00" from="-21.0.00" to="-19.0.00" departLane="0" departSpeed="max" departPos="0"/>
    <trip id="41" depart="218.00" from="2.0.00" to="-16.0.00" departLane="0" departSpeed="max" departPos="0"/>
    <trip id="42" depart="220.00" from="6.0.00" to="24.0.00" departLane="0" departSpeed="max" departPos="0"/>
    <trip id="43" depart="221.00" from="-22.0.00" to="21.0.00" departLane="0" departSpeed="max" departPos="0"/>
    <trip id="44" depart="246.00" from="-23.0.00" to="2.0.00" departLane="0" departSpeed="max" departPos="0"/>
    <trip id="45" depart="256.00" from="-10.0.00" to="0.0.00" departLane="0" departSpeed="max" departPos="0"/>
    <trip id="46" depart="257.00" from="6.0.00" to="23.0.00" departLane="0" departSpeed="max" departPos="0"/>
    <trip id="47" depart="259.00" from="-11.0.00" to="-20.0.00" departLane="0" departSpeed="max" departPos="0"/>
    <trip id="48" depart="262.00" from="0.0.00" to="-2.0.00" departLane="0" departSpeed="max" departPos="0"/>
    <trip id="49" depart="266.00" from="21.0.00" to="-24.0.00" departLane="0" departSpeed="max" departPos="0"/>
    <trip id="50" depart="281.00" from="-11.0.00" to="20.0.00" departLane="0" departSpeed="max" departPos="0"/>
    <trip id="51" depart="290.00" from="10.0.00" to="-25.0.00" departLane="0" departSpeed="max" departPos="0"/>
    <trip id="52" depart="300.00" from="-10.0.00" to="14.0.00" departLane="0" departSpeed="max" departPos="0"/>
    <trip id="53" depart="310.00" from="7.0.00" to="0.0.00" departLane="0" departSpeed="max" departPos="0"/>
    <trip id="54" depart="322.00" from="-8.0.00" to="8.0.00" departLane="0" departSpeed="max" departPos="0"/>
    <trip id="55" depart="325.00" from="7.0.00" to="-13.0.00" departLane="0" departSpeed="max" departPos="0"/>
    <trip id="56" depart="325.00" from="-22.0.00" to="-15.0.00" departLane="0" departSpeed="max" departPos="0"/>
    <trip id="57" depart="338.00" from="10.0.00" to="5.0.00" departLane="0" departSpeed="max" departPos="0"/>
    <trip id="58" depart="344.00" from="11.0.00" to="-13.0.00" departLane="0" departSpeed="max" departPos="0"/>
    <trip id="59" depart="351.00" from="15.0.00" to="17.0.00" departLane="0" departSpeed="max" departPos="0"/>
    <trip id="60" depart="363.00" from="-4.0.00" to="2.0.00" departLane="0" departSpeed="max" departPos="0"/>
    <trip id="61" depart="367.00" from="-1.0.00" to="-22.0.00" departLane="0" departSpeed="max" departPos="0"/>
    <trip id="62" depart="370.00" from="-17.0.00" to="-12.0.00" departLane="0" departSpeed="max" departPos="0"/>
    <trip id="63" depart="371.00" from="12.0.00" to="17.0.00" departLane="0" departSpeed="max" departPos="0"/>
    <trip id="64" depart="384.00" from="6.0.00" to="8.0.00" departLane="0" departSpeed="max" departPos="0"/>
    <trip id="65" depart="394.00" from="24.0.00" to="6.0.00" departLane="0" departSpeed="max" departPos="0"/>
    <trip id="66" depart="396.00" from="0.0.00" to="-25.0.00" departLane="0" departSpeed="max" departPos="0"/>
    <trip id="67" depart="397.00" from="10.0.00" to="-0.0.00" departLane="0" departSpeed="max" departPos="0"/>
    <trip id="68" depart="398.00" from="23.0.00" to="16.0.00" departLane="0" departSpeed="max" departPos="0"/>
    <trip id="69" depart="403.00" from="-16.0.00" to="-9.0.00" departLane="0" departSpeed="max" departPos="0"/>
    <trip id="70" depart="406.00" from="6.0.00" to="-23.0.00" departLane="0" departSpeed="max" departPos="0"/>
    <trip id="71" depart="411.00" from="-20.0.00" to="9.0.00" departLane="0" departSpeed="max" departPos="0"/>
    <trip id="72" depart="415.00" from="-21.0.00" to="-25.0.00" departLane="0" departSpeed="max" departPos="0"/>
    <trip id="73" depart="416.00" from="-23.0.00" to="-12.0.00" departLane="0" departSpeed="max" departPos="0"/>
    <trip id="74" depart="436.00" from="-2.0.00" to="0.0.00" departLane="0" departSpeed="max" departPos="0"/>
    <trip id="75" depart="438.00" from="-13.0.00" to="-5.0.00" departLane="0" departSpeed="max" departPos="0"/>
    <trip id="76" depart="444.00" from="13.0.00" to="-18.0.00" departLane="0" departSpeed="max" departPos="0"/>
    <trip id="77" depart="454.00" from="-14.0.00" to="22.0.00" departLane="0" departSpeed="max" departPos="0"/>
    <trip id="78" depart="456.00" from="20.0.00" to="-22.0.00" departLane="0" departSpeed="max" departPos="0"/>
    <trip id="79" depart="471.00" from="21.0.00" to="19.0.00" departLane="0" departSpeed="max" departPos="0"/>
    <trip id="80" depart="476.00" from="7.0.00" to="-18.0.00" departLane="0" departSpeed="max" departPos="0"/>
    <trip id="81" depart="480.00" from="-8.0.00" to="-14.0.00" departLane="0" departSpeed="max" departPos="0"/>
    <trip id="82" depart="480.00" from="18.0.00" to="22.0.00" departLane="0" departSpeed="max" departPos="0"/>
    <trip id="83" depart="484.00" from="15.0.00" to="-7.0.00" departLane="0" departSpeed="max" departPos="0"/>
    <trip id="84" depart="493.00" from="-11.0.00" to="-20.0.00" departLane="0" departSpeed="max" departPos="0"/>
    <trip id="85" depart="494.00" from="-10.0.00" to="20.0.00" departLane="0" departSpeed="max" departPos="0"/>
    <trip id="86" depart="503.00" from="22.0.00" to="-21.0.00" departLane="0" departSpeed="max" departPos="0"/>
    <trip id="87" depart="512.00" from="-17.0.00" to="11.0.00" departLane="0" departSpeed="max" departPos="0"/>
    <trip id="88" depart="514.00" from="-4.0.00" to="-2.0.00" departLane="0" departSpeed="max" departPos="0"/>
    <trip id="89" depart="515.00" from="15.0.00" to="23.0.00" departLane="0" departSpeed="max" departPos="0"/>
    <trip id="90" depart="527.00" from="-4.0.00" to="-7.0.00" departLane="0" departSpeed="max" departPos="0"/>
    <trip id="91" depart="528.00" from="23.0.00" to="9.0.00" departLane="0" departSpeed="max" departPos="0"/>
    <trip id="92" depart="530.00" from="-11.0.00" to="4.0.00" departLane="0" departSpeed="max" departPos="0"/>
    <trip id="93" depart="532.00" from="16.0.00" to="-16.0.00" departLane="0" departSpeed="max" departPos="0"/>
    <trip id="94" depart="533.00" from="13.0.00" to="-2.0.00" departLane="0" departSpeed="max" departPos="0"/>
    <trip id="95" depart="543.00" from="18.0.00" to="6.0.00" departLane="0" departSpeed="max" departPos="0"/>
    <trip id="96" depart="546.00" from="6.0.00" to="-18.0.00" departLane="0" departSpeed="max" departPos="0"/>
    <trip id="97" depart="547.00" from="12.0.00" to="5.0.00" departLane="0" departSpeed="max" departPos="0"/>
    <trip id="98" depart="554.00" from="12.0.00" to="5.0.00" departLane="0" departSpeed="max" departPos="0"/>
    <trip id="99" depart="558.00" from="-3.0.00" to="19.0.00" departLane="0" departSpeed="max" departPos="0"/>
    <trip id="100" depart="563.00" from="7.0.00" to="-15.0.00" departLane="0" departSpeed="max" departPos="0"/>
    <trip id="101" depart="568.00" from="-16.0.00" to="-22.0.00" departLane="0" departSpeed="max" departPos="0"/>
    <trip id="102" depart="585.00" from="-20.0.00" to="-14.0.00" departLane="0" departSpeed="max" departPos="0"/>
    <trip id="103" depart="585.00" from="3.0.00" to="-23.0.00" departLane="0" departSpeed="max" departPos="0"/>
    <trip id="104" depart="586.00" from="23.0.00" to="-22.0.00" departLane="0" departSpeed="max" departPos="0"/>
    <trip id="105" depart="592.00" from="-17.0.00" to="22.0.00" departLane="0" departSpeed="max" departPos="0"/>
    <trip id="106" depart="594.00" from="-24.0.00" to="12.0.00" departLane="0" departSpeed="max" departPos="0"/>
    <trip id="107" depart="598.00" from="21.0.00" to="2.0.00" departLane="0" departSpeed="max" departPos="0"/>
    <trip id="108" depart="598.00" from="5.0.00" to="15.0.00" departLane="0" departSpeed="max" departPos="0"/>
    <trip id="109" depart="598.00" from="-2.0.00" to="21.0.00" departLane="0" departSpeed="max" departPos="0"/>
    <trip id="110" depart="607.00" from="18.0.00" to="11.0.00" departLane="0" departSpeed="max" departPos="0"/>
    <trip id="111" depart="618.00" from="-20.0.00" to="2.0.00" departLane="0" departSpeed="max" departPos="0"/>
    <trip id="112" depart="620.00" from="-17.0.00" to="-25.0.00" departLane="0" departSpeed="max" departPos="0"/>
    <trip id="113" depart="620.00" from="-22.0.00" to="22.0.00" departLane="0" departSpeed="max" departPos="0"/>
    <trip id="114" depart="627.00" from="3.0.00" to="-20.0.00" departLane="0" departSpeed="max" departPos="0"/>
    <trip id="115" depart="628.00" from="18.0.00" to="-6.0.00" departLane="0" departSpeed="max" departPos="0"/>
    <trip id="116" depart="633.00" from="-9.0.00" to="-18.0.00" departLane="0" departSpeed="max" departPos="0"/>
    <trip id="117" depart="634.00" from="16.0.00" to="4.0.00" departLane="0" departSpeed="max" departPos="0"/>
    <trip id="118" depart="637.00" from="-20.0.00" to="21.0.00" departLane="0" departSpeed="max" departPos="0"/>
    <trip id="119" depart="644.00" from="16.0.00" to="23.0.00" departLane="0" departSpeed="max" departPos="0"/>
    <trip id="120" depart="655.00" from="-12.0.00" to="13.0.00" departLane="0" departSpeed="max" departPos="0"/>
    <trip id="121" depart="676.00" from="-14.0.00" to="16.0.00" departLane="0" departSpeed="max" departPos="0"/>
    <trip id="122" depart="678.00" from="23.0.00" to="-12.0.00" departLane="0" departSpeed="max" departPos="0"/>
    <trip id="123" depart="681.00" from="-2.0.00" to="13.0.00" departLane="0" departSpeed="max" departPos="0"/>
    <trip id="124" depart="692.00" from="16.0.00" to="-7.0.00" departLane="0" departSpeed="max" departPos="0"/>
    <trip id="125" depart="697.00" from="-11.0.00" to="16.0.00" departLane="0" departSpeed="max" departPos="0"/>
    <trip id="126" depart="702.00" from="16.0.00" to="1.0.00" departLane="0" departSpeed="max" departPos="0"/>
    <trip id="127" depart="709.00" from="12.0.00" to="1.0.00" departLane="0" departSpeed="max" departPos="0"/>
    <trip id="128" depart="717.00" from="-19.0.00" to="-19.0.00" departLane="0" departSpeed="max" departPos="0"/>
    <trip id="129" depart="721.00" from="0.0.00" to="-1.0.00" departLane="0" departSpeed="max" departPos="0"/>
    <trip id="130" depart="738.00" from="-10.0.00" to="11.0.00" departLane="0" departSpeed="max" departPos="0"/>
    <trip id="131" depart="739.00" from="11.0.00" to="-10.0.00" departLane="0" departSpeed="max" departPos="0"/>
    <trip id="132" depart="740.00" from="19.0.00" to="15.0.00" departLane="0" departSpeed="max" departPos="0"/>
    <trip id="133" depart="746.00" from="21.0.00" to="0.0.00" departLane="0" departSpeed="max" departPos="0"/>
    <trip id="134" depart="753.00" from="15.0.00" to="17.0.00" departLane="0" departSpeed="max" departPos="0"/>
    <trip id="135" depart="760.00" from="-12.0.00" to="-14.0.00" departLane="0" departSpeed="max" departPos="0"/>
    <trip id="136" depart="761.00" from="-3.0.00" to="9.0.00" departLane="0" departSpeed="max" departPos="0"/>
    <trip id="137" depart="764.00" from="12.0.00" to="0.0.00" departLane="0" departSpeed="max" departPos="0"/>
    <trip id="138" depart="764.00" from="-19.0.00" to="-0.0.00" departLane="0" departSpeed="max" departPos="0"/>
    <trip id="139" depart="772.00" from="-13.0.00" to="-11.0.00" departLane="0" departSpeed="max" departPos="0"/>
    <trip id="140" depart="774.00" from="23.0.00" to="-2.0.00" departLane="0" departSpeed="max" departPos="0"/>
    <trip id="141" depart="785.00" from="-18.0.00" to="11.0.00" departLane="0" departSpeed="max" departPos="0"/>
    <trip id="142" depart="795.00" from="-13.0.00" to="24.0.00" departLane="0" departSpeed="max" departPos="0"/>
    <trip id="143" depart="802.00" from="19.0.00" to="15.0.00" departLane="0" departSpeed="max" departPos="0"/>
    <trip id="144" depart="804.00" from="-4.0.00" to="2.0.00" departLane="0" departSpeed="max" departPos="0"/>
    <trip id="145" depart="806.00" from="15.0.00" to="24.0.00" departLane="0" departSpeed="max" departPos="0"/>
    <trip id="146" depart="811.00" from="23.0.00" to="23.0.00" departLane="0" departSpeed="max" departPos="0"/>
    <trip id="147" depart="812.00" from="6.0.00" to="6.0.00" departLane="0" departSpeed="max" departPos="0"/>
    <trip id="148" depart="812.00" from="-5.0.00" to="-22.0.00" departLane="0" departSpeed="max" departPos="0"/>
    <trip id="149" depart="813.00" from="-24.0.00" to="-5.0.00" departLane="0" departSpeed="max" departPos="0"/>
    <trip id="150" depart="818.00" from="-10.0.00" to="1.0.00" departLane="0" departSpeed="max" departPos="0"/>
    <trip id="151" depart="824.00" from="-8.0.00" to="20.0.00" departLane="0" departSpeed="max" departPos="0"/>
    <trip id="152" depart="829.00" from="-10.0.00" to="20.0.00" departLane="0" departSpeed="max" departPos="0"/>
    <trip id="153" depart="838.00" from="14.0.00" to="-3.0.00" departLane="0" departSpeed="max" departPos="0"/>
    <trip id="154" depart="838.00" from="25.0.00" to="20.0.00" departLane="0" departSpeed="max" departPos="0"/>
    <trip id="155" depart="858.00" from="23.0.00" to="17.0.00" departLane="0" departSpeed="max" departPos="0"/>
    <trip id="156" depart="859.00" from="-24.0.00" to="-14.0.00" departLane="0" departSpeed="max" departPos="0"/>
    <trip id="157" depart="865.00" from="21.0.00" to="-3.0.00" departLane="0" departSpeed="max" departPos="0"/>
    <trip id="158" depart="874.00" from="-21.0.00" to="9.0.00" departLane="0" departSpeed="max" departPos="0"/>
    <trip id="159" depart="877.00" from="18.0.00" to="-13.0.00" departLane="0" departSpeed="max" departPos="0"/>
    <trip id="160" depart="878.00" from="-18.0.00" to="1.0.00" departLane="0" departSpeed="max" departPos="0"/>
    <trip id="161" depart="879.00" from="11.0.00" to="15.0.00" departLane="0" departSpeed="max" departPos="0"/>
    <trip id="162" depart="881.00" from="-3.0.00" to="-21.0.00" departLane="0" departSpeed="max" departPos="0"/>
    <trip id="163" depart="882.00" from="25.0.00" to="15.0.00" departLane="0" departSpeed="max" departPos="0"/>
    <trip id="164" depart="884.00" from="-19.0.00" to="1.0.00" departLane="0" departSpeed="max" departPos="0"/>
    <trip id="165" depart="887.00" from="10.0.00" to="-21.0.00" departLane="0" departSpeed="max" departPos="0"/>
    <trip id="166" depart="900.00" from="20.0.00" to="-0.0.00" departLane="0" departSpeed="max" departPos="0"/>
    <trip id="167" depart="920.00" from="3.0.00" to="-2.0.00" departLane="0" departSpeed="max" departPos="0"/>
    <trip id="168" depart="923.00" from="24.0.00" to="16.0.00" departLane="0" departSpeed="max" departPos="0"/>
    <trip id="169" depart="934.00" from="-1.0.00" to="14.0.00" departLane="0" departSpeed="max" departPos="0"/>
    <trip id="170" depart="936.00" from="-17.0.00" to="-21.0.00" departLane="0" departSpeed="max" departPos="0"/>
    <trip id="171" depart="937.00" from="16.0.00" to="-24.0.00" departLane="0" departSpeed="max" departPos="0"/>
    <trip id="172" depart="937.00" from="-16.0.00" to="-23.0.00" departLane="0" departSpeed="max" departPos="0"/>
    <trip id="173" depart="942.00" from="9.0.00" to="14.0.00" departLane="0" departSpeed="max" departPos="0"/>
    <trip id="174" depart="944.00" from="-4.0.00" to="-9.0.00" departLane="0" departSpeed="max" departPos="0"/>
    <trip id="175" depart="946.00" from="-9.0.00" to="0.0.00" departLane="0" departSpeed="max" departPos="0"/>
    <trip id="176" depart="950.00" from="6.0.00" to="16.0.00" departLane="0" departSpeed="max" departPos="0"/>
    <trip id="177" depart="953.00" from="13.0.00" to="0.0.00" departLane="0" departSpeed="max" departPos="0"/>
    <trip id="178" depart="964.00" from="-8.0.00" to="-24.0.00" departLane="0" departSpeed="max" departPos="0"/>
    <trip id="179" depart="974.00" from="-15.0.00" to="-15.0.00" departLane="0" departSpeed="max" departPos="0"/>
    <trip id="180" depart="977.00" from="9.0.00" to="-5.0.00" departLane="0" departSpeed="max" departPos="0"/>
    <trip id="181" depart="982.00" from="19.0.00" to="-9.0.00" departLane="0" departSpeed="max" departPos="0"/>
    <trip id="182" depart="994.00" from="6.0.00" to="19.0.00" departLane="0" departSpeed="max" departPos="0"/>
    <trip id="183" depart="997.00" from="-13.0.00" to="-16.0.00" departLane="0" departSpeed="max" departPos="0"/>
    <trip id="184" depart="1005.00" from="6.0.00" to="-7.0.00" departLane="0" departSpeed="max" departPos="0"/>
    <trip id="185" depart="1010.00" from="-12.0.00" to="-12.0.00" departLane="0" departSpeed="max" departPos="0"/>
    <trip id="186" depart="1011.00" from="-12.0.00" to="6.0.00" departLane="0" departSpeed="max" departPos="0"/>
    <trip id="187" depart="1025.00" from="7.0.00" to="22.0.00" departLane="0" departSpeed="max" departPos="0"/>
    <trip id="188" depart="1028.00" from="-3.0.00" to="-18.0.00" departLane="0" departSpeed="max" departPos="0"/>
    <trip id="189" depart="1032.00" from="-10.0.00" to="20.0.00" departLane="0" departSpeed="max" departPos="0"/>
    <trip id="190" depart="1034.00" from="-14.0.00" to="15.0.00" departLane="0" departSpeed="max" departPos="0"/>
    <trip id="191" depart="1043.00" from="-9.0.00" to="-0.0.00" departLane="0" departSpeed="max" departPos="0"/>
    <trip id="192" depart="1046.00" from="-16.0.00" to="-9.0.00" departLane="0" departSpeed="max" departPos="0"/>
    <trip id="193" depart="1047.00" from="-19.0.00" to="-13.0.00" departLane="0" departSpeed="max" departPos="0"/>
    <trip id="194" depart="1065.00" from="9.0.00" to="-1.0.00" departLane="0" departSpeed="max" departPos="0"/>
    <trip id="195" depart="1066.00" from="1.0.00" to="-9.0.00" departLane="0" departSpeed="max" departPos="0"/>
    <trip id="196" depart="1067.00" from="2.0.00" to="6.0.00" departLane="0" departSpeed="max" departPos="0"/>
    <trip id="197" depart="1069.00" from="-6.0.00" to="20.0.00" departLane="0" departSpeed="max" departPos="0"/>
    <trip id="198" depart="1071.00" from="-5.0.00" to="-20.0.00" departLane="0" departSpeed="max" departPos="0"/>
    <trip id="199" depart="1093.00" from="-22.0.00" to="-24.0.00" departLane="0" departSpeed="max" departPos="0"/>
    <trip id="200" depart="1095.00" from="2.0.00" to="8.0.00" departLane="0" departSpeed="max" departPos="0"/>
    <trip id="201" depart="1101.00" from="1.0.00" to="-7.0.00" departLane="0" departSpeed="max" departPos="0"/>
    <trip id="202" depart="1112.00" from="-0.0.00" to="-20.0.00" departLane="0" departSpeed="max" departPos="0"/>
    <trip id="203" depart="1123.00" from="0.0.00" to="-25.0.00" departLane="0" departSpeed="max" departPos="0"/>
    <trip id="204" depart="1128.00" from="23.0.00" to="-19.0.00" departLane="0" departSpeed="max" departPos="0"/>
    <trip id="205" depart="1136.00" from="-18.0.00" to="-18.0.00" departLane="0" departSpeed="max" departPos="0"/>
    <trip id="206" depart="1157.00" from="-5.0.00" to="4.0.00" departLane="0" departSpeed="max" departPos="0"/>
    <trip id="207" depart="1158.00" from="10.0.00" to="24.0.00" departLane="0" departSpeed="max" departPos="0"/>
    <trip id="208" depart="1162.00" from="-10.0.00" to="23.0.00" departLane="0" departSpeed="max" departPos="0"/>
    <trip id="209" depart="1163.00" from="3.0.00" to="-24.0.00" departLane="0" departSpeed="max" departPos="0"/>
    <trip id="210" depart="1166.00" from="-22.0.00" to="-8.0.00" departLane="0" departSpeed="max" departPos="0"/>
    <trip id="211" depart="1176.00" from="18.0.00" to="24.0.00" departLane="0" departSpeed="max" departPos="0"/>
    <trip id="212" depart="1184.00" from="-15.0.00" to="-14.0.00" departLane="0" departSpeed="max" departPos="0"/>
    <trip id="213" depart="1185.00" from="25.0.00" to="-12.0.00" departLane="0" departSpeed="max" departPos="0"/>
    <trip id="214" depart="1195.00" from="8.0.00" to="13.0.00" departLane="0" departSpeed="max" departPos="0"/>
    <trip id="215" depart="1201.00" from="25.0.00" to="22.0.00" departLane="0" departSpeed="max" departPos="0"/>
    <trip id="216" depart="1204.00" from="-10.0.00" to="14.0.00" departLane="0" departSpeed="max" departPos="0"/>
    <trip id="217" depart="1219.00" from="-14.0.00" to="-23.0.00" departLane="0" departSpeed="max" departPos="0"/>
    <trip id="218" depart="1230.00" from="-2.0.00" to="17.0.00" departLane="0" departSpeed="max" departPos="0"/>
    <trip id="219" depart="1236.00" from="16.0.00" to="16.0.00" departLane="0" departSpeed="max" departPos="0"/>
    <trip id="220" depart="1238.00" from="8.0.00" to="15.0.00" departLane="0" departSpeed="max" departPos="0"/>
    <trip id="221" depart="1258.00" from="-13.0.00" to="-16.0.00" departLane="0" departSpeed="max" departPos="0"/>
    <trip id="222" depart="1261.00" from="-13.0.00" to="-0.0.00" departLane="0" departSpeed="max" departPos="0"/>
    <trip id="223" depart="1264.00" from="-15.0.00" to="-15.0.00" departLane="0" departSpeed="max" departPos="0"/>
    <trip id="224" depart="1266.00" from="14.0.00" to="18.0.00" departLane="0" departSpeed="max" departPos="0"/>
    <trip id="225" depart="1271.00" from="-20.0.00" to="-18.0.00" departLane="0" departSpeed="max" departPos="0"/>
    <trip id="226" depart="1277.00" from="3.0.00" to="-25.0.00" departLane="0" departSpeed="max" departPos="0"/>
    <trip id="227" depart="1278.00" from="-11.0.00" to="-6.0.00" departLane="0" departSpeed="max" departPos="0"/>
    <trip id="228" depart="1291.00" from="-14.0.00" to="-0.0.00" departLane="0" departSpeed="max" departPos="0"/>
    <trip id="229" depart="1296.00" from="-20.0.00" to="1.0.00" departLane="0" departSpeed="max" departPos="0"/>
    <trip id="230" depart="1298.00" from="-23.0.00" to="18.0.00" departLane="0" departSpeed="max" departPos="0"/>
    <trip id="231" depart="1300.00" from="22.0.00" to="12.0.00" departLane="0" departSpeed="max" departPos="0"/>
    <trip id="232" depart="1328.00" from="21.0.00" to="-2.0.00" departLane="0" departSpeed="max" departPos="0"/>
    <trip id="233" depart="1329.00" from="-5.0.00" to="-5.0.00" departLane="0" departSpeed="max" departPos="0"/>
    <trip id="234" depart="1332.00" from="-10.0.00" to="-3.0.00" departLane="0" departSpeed="max" departPos="0"/>
    <trip id="235" depart="1340.00" from="-8.0.00" to="22.0.00" departLane="0" departSpeed="max" departPos="0"/>
    <trip id="236" depart="1341.00" from="6.0.00" to="-9.0.00" departLane="0" departSpeed="max" departPos="0"/>
    <trip id="237" depart="1347.00" from="18.0.00" to="15.0.00" departLane="0" departSpeed="max" departPos="0"/>
    <trip id="238" depart="1347.00" from="-8.0.00" to="4.0.00" departLane="0" departSpeed="max" departPos="0"/>
    <trip id="239" depart="1349.00" from="23.0.00" to="16.0.00" departLane="0" departSpeed="max" departPos="0"/>
    <trip id="240" depart="1351.00" from="-8.0.00" to="5.0.00" departLane="0" departSpeed="max" departPos="0"/>
    <trip id="241" depart="1352.00" from="-20.0.00" to="5.0.00" departLane="0" departSpeed="max" departPos="0"/>
    <trip id="242" depart="1363.00" from="-17.0.00" to="-11.0.00" departLane="0" departSpeed="max" departPos="0"/>
    <trip id="243" depart="1364.00" from="2.0.00" to="8.0.00" departLane="0" departSpeed="max" departPos="0"/>
    <trip id="244" depart="1369.00" from="-22.0.00" to="23.0.00" departLane="0" departSpeed="max" departPos="0"/>
    <trip id="245" depart="1373.00" from="-3.0.00" to="21.0.00" departLane="0" departSpeed="max" departPos="0"/>
    <trip id="246" depart="1379.00" from="12.0.00" to="16.0.00" departLane="0" departSpeed="max" departPos="0"/>
    <trip id="247" depart="1384.00" from="-18.0.00" to="-2.0.00" departLane="0" departSpeed="max" departPos="0"/>
    <trip id="248" depart="1387.00" from="-13.0.00" to="-21.0.00" departLane="0" departSpeed="max" departPos="0"/>
    <trip id="249" depart="1388.00" from="-17.0.00" to="-16.0.00" departLane="0" departSpeed="max" departPos="0"/>
    <trip id="250" depart="1389.00" from="24.0.00" to="4.0.00" departLane="0" departSpeed="max" departPos="0"/>
    <trip id="251" depart="1389.00" from="16.0.00" to="-3.0.00" departLane="0" departSpeed="max" departPos="0"/>
    <trip id="252" depart="1400.00" from="-18.0.00" to="-18.0.00" departLane="0" departSpeed="max" departPos="0"/>
    <trip id="253" depart="1407.00" from="-17.0.00" to="-18.0.00" departLane="0" departSpeed="max" departPos="0"/>
    <trip id="254" depart="1409.00" from="-21.0.00" to="22.0.00" departLane="0" departSpeed="max" departPos="0"/>
    <trip id="255" depart="1416.00" from="22.0.00" to="23.0.00" departLane="0" departSpeed="max" departPos="0"/>
    <trip id="256" depart="1417.00" from="21.0.00" to="5.0.00" departLane="0" departSpeed="max" departPos="0"/>
    <trip id="257" depart="1421.00" from="18.0.00" to="-9.0.00" departLane="0" departSpeed="max" departPos="0"/>
    <trip id="258" depart="1427.00" from="-14.0.00" to="-11.0.00" departLane="0" departSpeed="max" departPos="0"/>
    <trip id="259" depart="1438.00" from="-13.0.00" to="5.0.00" departLane="0" departSpeed="max" departPos="0"/>
    <trip id="260" depart="1441.00" from="-12.0.00" to="-22.0.00" departLane="0" departSpeed="max" departPos="0"/>
    <trip id="261" depart="1443.00" from="16.0.00" to="-19.0.00" departLane="0" departSpeed="max" departPos="0"/>
    <trip id="262" depart="1445.00" from="21.0.00" to="2.0.00" departLane="0" departSpeed="max" departPos="0"/>