<?xml version="1.0" encoding="UTF-8"?>
<!-- generated on 2021-11-07 06:58:09.160463 by $Id$ UNKNOWN
  options: -n sumo2morai/sumo/nets/suburb_02.net.xml -e 3600 -r sumo2morai/sumo/routes/suburb_02.rou.xml <doubleminus>period 2 <doubleminus>binomial 2 <doubleminus>trip-attributes departLane="0" departSpeed="max" departPos="0" <doubleminus>weights-prefix sumo2morai/sumo/weights/suburb_02
-->
<routes xmlns:xsi="http://www.w3.org/2001/XMLSchema-instance" xsi:noNamespaceSchemaLocation="http://sumo.dlr.de/xsd/routes_file.xsd">
    <trip id="0" depart="0.00" from="-22.0.00" to="-20.0.00" departLane="0" departSpeed="max" departPos="0"/>
    <trip id="1" depart="2.00" from="-5.0.00" to="-10.0.00" departLane="0" departSpeed="max" departPos="0"/>
    <trip id="2" depart="3.00" from="0.0.00" to="-10.0.00" departLane="0" departSpeed="max" departPos="0"/>
    <trip id="3" depart="3.00" from="16.0.00" to="10.0.00" departLane="0" departSpeed="max" departPos="0"/>
    <trip id="4" depart="4.00" from="12.0.00" to="23.0.00" departLane="0" departSpeed="max" departPos="0"/>
    <trip id="5" depart="4.00" from="24.0.00" to="18.0.00" departLane="0" departSpeed="max" departPos="0"/>
    <trip id="6" depart="5.00" from="8.0.00" to="-25.0.00" departLane="0" departSpeed="max" departPos="0"/>
    <trip id="7" depart="6.00" from="-12.0.00" to="24.0.00" departLane="0" departSpeed="max" departPos="0"/>
    <trip id="8" depart="12.00" from="-20.0.00" to="-23.0.00" departLane="0" departSpeed="max" departPos="0"/>
    <trip id="9" depart="13.00" from="-20.0.00" to="-13.0.00" departLane="0" departSpeed="max" departPos="0"/>
    <trip id="10" depart="15.00" from="-21.0.00" to="6.0.00" departLane="0" departSpeed="max" departPos="0"/>
    <trip id="11" depart="17.00" from="21.0.00" to="-18.0.00" departLane="0" departSpeed="max" departPos="0"/>
    <trip id="12" depart="21.00" from="-10.0.00" to="-24.0.00" departLane="0" departSpeed="max" departPos="0"/>
    <trip id="13" depart="22.00" from="7.0.00" to="4.0.00" departLane="0" departSpeed="max" departPos="0"/>
    <trip id="14" depart="25.00" from="11.0.00" to="-22.0.00" departLane="0" departSpeed="max" departPos="0"/>
    <trip id="15" depart="27.00" from="9.0.00" to="0.0.00" departLane="0" departSpeed="max" departPos="0"/>
    <trip id="16" depart="28.00" from="-10.0.00" to="-13.0.00" departLane="0" departSpeed="max" departPos="0"/>
    <trip id="17" depart="30.00" from="-4.0.00" to="9.0.00" departLane="0" departSpeed="max" departPos="0"/>
    <trip id="18" depart="32.00" from="20.0.00" to="18.0.00" departLane="0" departSpeed="max" departPos="0"/>
    <trip id="19" depart="34.00" from="-6.0.00" to="-8.0.00" departLane="0" departSpeed="max" departPos="0"/>
    <trip id="20" depart="36.00" from="6.0.00" to="3.0.00" departLane="0" departSpeed="max" departPos="0"/>
    <trip id="21" depart="38.00" from="22.0.00" to="10.0.00" departLane="0" departSpeed="max" departPos="0"/>
    <trip id="22" depart="40.00" from="-23.0.00" to="-0.0.00" departLane="0" departSpeed="max" departPos="0"/>
    <trip id="23" depart="42.00" from="5.0.00" to="6.0.00" departLane="0" departSpeed="max" departPos="0"/>
    <trip id="24" depart="43.00" from="-9.0.00" to="-11.0.00" departLane="0" departSpeed="max" departPos="0"/>
    <trip id="25" depart="44.00" from="-9.0.00" to="10.0.00" departLane="0" departSpeed="max" departPos="0"/>
    <trip id="26" depart="46.00" from="10.0.00" to="20.0.00" departLane="0" departSpeed="max" departPos="0"/>
    <trip id="27" depart="47.00" from="-23.0.00" to="9.0.00" departLane="0" departSpeed="max" departPos="0"/>
    <trip id="28" depart="49.00" from="-19.0.00" to="-25.0.00" departLane="0" departSpeed="max" departPos="0"/>
    <trip id="29" depart="50.00" from="-19.0.00" to="-11.0.00" departLane="0" departSpeed="max" departPos="0"/>
    <trip id="30" depart="51.00" from="6.0.00" to="3.0.00" departLane="0" departSpeed="max" departPos="0"/>
    <trip id="31" depart="51.00" from="-20.0.00" to="17.0.00" departLane="0" departSpeed="max" departPos="0"/>
    <trip id="32" depart="52.00" from="-16.0.00" to="6.0.00" departLane="0" departSpeed="max" departPos="0"/>
    <trip id="33" depart="54.00" from="-12.0.00" to="-7.0.00" departLane="0" departSpeed="max" departPos="0"/>
    <trip id="34" depart="57.00" from="-5.0.00" to="-25.0.00" departLane="0" departSpeed="max" departPos="0"/>
    <trip id="35" depart="58.00" from="-18.0.00" to="-7.0.00" departLane="0" departSpeed="max" departPos="0"/>
    <trip id="36" depart="60.00" from="6.0.00" to="-7.0.00" departLane="0" departSpeed="max" departPos="0"/>
    <trip id="37" depart="61.00" from="9.0.00" to="24.0.00" departLane="0" departSpeed="max" departPos="0"/>
    <trip id="38" depart="63.00" from="-9.0.00" to="-20.0.00" departLane="0" departSpeed="max" departPos="0"/>
    <trip id="39" depart="64.00" from="-4.0.00" to="9.0.00" departLane="0" departSpeed="max" departPos="0"/>
    <trip id="40" depart="69.00" from="-22.0.00" to="8.0.00" departLane="0" departSpeed="max" departPos="0"/>
    <trip id="41" depart="71.00" from="12.0.00" to="0.0.00" departLane="0" departSpeed="max" departPos="0"/>
    <trip id="42" depart="72.00" from="8.0.00" to="-12.0.00" departLane="0" departSpeed="max" departPos="0"/>
    <trip id="43" depart="72.00" from="12.0.00" to="18.0.00" departLane="0" departSpeed="max" departPos="0"/>
    <trip id="44" depart="73.00" from="-13.0.00" to="4.0.00" departLane="0" departSpeed="max" departPos="0"/>
    <trip id="45" depart="73.00" from="12.0.00" to="13.0.00" departLane="0" departSpeed="max" departPos="0"/>
    <trip id="46" depart="76.00" from="20.0.00" to="-21.0.00" departLane="0" departSpeed="max" departPos="0"/>
    <trip id="47" depart="79.00" from="-8.0.00" to="9.0.00" departLane="0" departSpeed="max" departPos="0"/>
    <trip id="48" depart="80.00" from="-19.0.00" to="-22.0.00" departLane="0" departSpeed="max" departPos="0"/>
    <trip id="49" depart="82.00" from="25.0.00" to="19.0.00" departLane="0" departSpeed="max" departPos="0"/>
    <trip id="50" depart="84.00" from="24.0.00" to="-23.0.00" departLane="0" departSpeed="max" departPos="0"/>
    <trip id="51" depart="86.00" from="-13.0.00" to="-13.0.00" departLane="0" departSpeed="max" departPos="0"/>
    <trip id="52" depart="88.00" from="16.0.00" to="-22.0.00" departLane="0" departSpeed="max" departPos="0"/>
    <trip id="53" depart="90.00" from="-5.0.00" to="-23.0.00" departLane="0" departSpeed="max" departPos="0"/>
    <trip id="54" depart="91.00" from="22.0.00" to="16.0.00" departLane="0" departSpeed="max" departPos="0"/>
    <trip id="55" depart="93.00" from="-12.0.00" to="4.0.00" departLane="0" departSpeed="max" departPos="0"/>
    <trip id="56" depart="96.00" from="-16.0.00" to="-24.0.00" departLane="0" departSpeed="max" departPos="0"/>
    <trip id="57" depart="98.00" from="-20.0.00" to="-13.0.00" departLane="0" departSpeed="max" departPos="0"/>
    <trip id="58" depart="101.00" from="7.0.00" to="3.0.00" departLane="0" departSpeed="max" departPos="0"/>
    <trip id="59" depart="103.00" from="21.0.00" to="-25.0.00" departLane="0" departSpeed="max" departPos="0"/>
    <trip id="60" depart="106.00" from="3.0.00" to="3.0.00" departLane="0" departSpeed="max" departPos="0"/>
    <trip id="61" depart="107.00" from="24.0.00" to="-8.0.00" departLane="0" departSpeed="max" departPos="0"/>
    <trip id="62" depart="108.00" from="-0.0.00" to="-19.0.00" departLane="0" departSpeed="max" departPos="0"/>
    <trip id="63" depart="113.00" from="8.0.00" to="-19.0.00" departLane="0" departSpeed="max" departPos="0"/>
    <trip id="64" depart="115.00" from="-6.0.00" to="20.0.00" departLane="0" departSpeed="max" departPos="0"/>
    <trip id="65" depart="119.00" from="7.0.00" to="10.0.00" departLane="0" departSpeed="max" departPos="0"/>
    <trip id="66" depart="121.00" from="18.0.00" to="-25.0.00" departLane="0" departSpeed="max" departPos="0"/>
    <trip id="67" depart="126.00" from="-5.0.00" to="6.0.00" departLane="0" departSpeed="max" departPos="0"/>
    <trip id="68" depart="129.00" from="-22.0.00" to="-7.0.00" departLane="0" departSpeed="max" departPos="0"/>
    <trip id="69" depart="131.00" from="-8.0.00" to="5.0.00" departLane="0" departSpeed="max" departPos="0"/>
    <trip id="70" depart="132.00" from="-12.0.00" to="0.0.00" departLane="0" departSpeed="max" departPos="0"/>
    <trip id="71" depart="135.00" from="-18.0.00" to="-0.0.00" departLane="0" departSpeed="max" departPos="0"/>
    <trip id="72" depart="136.00" from="-9.0.00" to="24.0.00" departLane="0" departSpeed="max" departPos="0"/>
    <trip id="73" depart="136.00" from="-5.0.00" to="16.0.00" departLane="0" departSpeed="max" departPos="0"/>
    <trip id="74" depart="137.00" from="19.0.00" to="-9.0.00" departLane="0" departSpeed="max" departPos="0"/>
    <trip id="75" depart="137.00" from="18.0.00" to="-0.0.00" departLane="0" departSpeed="max" departPos="0"/>
    <trip id="76" depart="139.00" from="-6.0.00" to="-19.0.00" departLane="0" departSpeed="max" departPos="0"/>
    <trip id="77" depart="140.00" from="-20.0.00" to="24.0.00" departLane="0" departSpeed="max" departPos="0"/>
    <trip id="78" depart="149.00" from="16.0.00" to="21.0.00" departLane="0" departSpeed="max" departPos="0"/>
    <trip id="79" depart="151.00" from="-22.0.00" to="-22.0.00" departLane="0" departSpeed="max" departPos="0"/>
    <trip id="80" depart="152.00" from="-20.0.00" to="18.0.00" departLane="0" departSpeed="max" departPos="0"/>
    <trip id="81" depart="153.00" from="-5.0.00" to="10.0.00" departLane="0" departSpeed="max" departPos="0"/>
    <trip id="82" depart="154.00" from="-5.0.00" to="5.0.00" departLane="0" departSpeed="max" departPos="0"/>
    <trip id="83" depart="157.00" from="-3.0.00" to="21.0.00" departLane="0" departSpeed="max" departPos="0"/>
    <trip id="84" depart="161.00" from="-19.0.00" to="-7.0.00" departLane="0" departSpeed="max" departPos="0"/>
    <trip id="85" depart="161.00" from="-24.0.00" to="18.0.00" departLane="0" departSpeed="max" departPos="0"/>
    <trip id="86" depart="162.00" from="-8.0.00" to="-16.0.00" departLane="0" departSpeed="max" departPos="0"/>
    <trip id="87" depart="163.00" from="-4.0.00" to="11.0.00" departLane="0" departSpeed="max" departPos="0"/>
    <trip id="88" depart="164.00" from="16.0.00" to="-16.0.00" departLane="0" departSpeed="max" departPos="0"/>
    <trip id="89" depart="165.00" from="-4.0.00" to="-20.0.00" departLane="0" departSpeed="max" departPos="0"/>
    <trip id="90" depart="168.00" from="-0.0.00" to="10.0.00" departLane="0" departSpeed="max" departPos="0"/>
    <trip id="91" depart="172.00" from="-0.0.00" to="-18.0.00" departLane="0" departSpeed="max" departPos="0"/>
    <trip id="92" depart="173.00" from="18.0.00" to="11.0.00" departLane="0" departSpeed="max" departPos="0"/>
    <trip id="93" depart="173.00" from="19.0.00" to="21.0.00" departLane="0" departSpeed="max" departPos="0"/>
    <trip id="94" depart="174.00" from="13.0.00" to="20.0.00" departLane="0" departSpeed="max" departPos="0"/>
    <trip id="95" depart="174.00" from="24.0.00" to="8.0.00" departLane="0" departSpeed="max" departPos="0"/>
    <trip id="96" depart="175.00" from="-10.0.00" to="-24.0.00" departLane="0" departSpeed="max" departPos="0"/>
    <trip id="97" depart="177.00" from="19.0.00" to="16.0.00" departLane="0" departSpeed="max" departPos="0"/>
    <trip id="98" depart="178.00" from="22.0.00" to="3.0.00" departLane="0" departSpeed="max" departPos="0"/>
    <trip id="99" depart="179.00" from="9.0.00" to="22.0.00" departLane="0" departSpeed="max" departPos="0"/>
    <trip id="100" depart="183.00" from="8.0.00" to="16.0.00" departLane="0" departSpeed="max" departPos="0"/>
    <trip id="101" depart="190.00" from="5.0.00" to="-21.0.00" departLane="0" departSpeed="max" departPos="0"/>
    <trip id="102" depart="192.00" from="3.0.00" to="-19.0.00" departLane="0" departSpeed="max" departPos="0"/>
    <trip id="103" depart="193.00" from="23.0.00" to="-25.0.00" departLane="0" departSpeed="max" departPos="0"/>
    <trip id="104" depart="195.00" from="7.0.00" to="-12.0.00" departLane="0" departSpeed="max" departPos="0"/>
    <trip id="105" depart="199.00" from="-19.0.00" to="18.0.00" departLane="0" departSpeed="max" departPos="0"/>
    <trip id="106" depart="204.00" from="-18.0.00" to="-13.0.00" departLane="0" departSpeed="max" departPos="0"/>
    <trip id="107" depart="206.00" from="-19.0.00" to="-9.0.00" departLane="0" departSpeed="max" departPos="0"/>
    <trip id="108" depart="208.00" from="-18.0.00" to="-21.0.00" departLane="0" departSpeed="max" departPos="0"/>
    <trip id="109" depart="209.00" from="-0.0.00" to="10.0.00" departLane="0" departSpeed="max" departPos="0"/>
    <trip id="110" depart="211.00" from="3.0.00" to="-9.0.00" departLane="0" departSpeed="max" departPos="0"/>
    <trip id="111" depart="214.00" from="-11.0.00" to="6.0.00" departLane="0" departSpeed="max" departPos="0"/>
    <trip id="112" depart="216.00" from="16.0.00" to="-11.0.00" departLane="0" departSpeed="max" departPos="0"/>
    <trip id="113" depart="216.00" from="11.0.00" to="-24.0.00" departLane="0" departSpeed="max" departPos="0"/>
    <trip id="114" depart="217.00" from="22.0.00" to="13.0.00" departLane="0" departSpeed="max" departPos="0"/>
    <trip id="115" depart="218.00" from="0.0.00" to="-8.0.00" departLane="0" departSpeed="max" departPos="0"/>
    <trip id="116" depart="223.00" from="-19.0.00" to="17.0.00" departLane="0" departSpeed="max" departPos="0"/>
    <trip id="117" depart="223.00" from="-17.0.00" to="-12.0.00" departLane="0" departSpeed="max" departPos="0"/>
    <trip id="118" depart="224.00" from="-8.0.00" to="12.0.00" departLane="0" departSpeed="max" departPos="0"/>
    <trip id="119" depart="225.00" from="20.0.00" to="19.0.00" departLane="0" departSpeed="max" departPos="0"/>
    <trip id="120" depart="231.00" from="-17.0.00" to="-24.0.00" departLane="0" departSpeed="max" departPos="0"/>
    <trip id="121" depart="233.00" from="19.0.00" to="18.0.00" departLane="0" departSpeed="max" departPos="0"/>
    <trip id="122" depart="235.00" from="-10.0.00" to="-7.0.00" departLane="0" departSpeed="max" departPos="0"/>
    <trip id="123" depart="237.00" from="8.0.00" to="24.0.00" departLane="0" departSpeed="max" departPos="0"/>
    <trip id="124" depart="240.00" from="22.0.00" to="-8.0.00" departLane="0" departSpeed="max" departPos="0"/>
    <trip id="125" depart="241.00" from="12.0.00" to="16.0.00" departLane="0" departSpeed="max" departPos="0"/>
    <trip id="126" depart="242.00" from="-24.0.00" to="-25.0.00" departLane="0" departSpeed="max" departPos="0"/>
    <trip id="127" depart="252.00" from="-3.0.00" to="21.0.00" departLane="0" departSpeed="max" departPos="0"/>
    <trip id="128" depart="253.00" from="10.0.00" to="6.0.00" departLane="0" departSpeed="max" departPos="0"/>
    <trip id="129" depart="255.00" from="8.0.00" to="13.0.00" departLane="0" departSpeed="max" departPos="0"/>
    <trip id="130" depart="255.00" from="-17.0.00" to="11.0.00" departLane="0" departSpeed="max" departPos="0"/>
    <trip id="131" depart="256.00" from="9.0.00" to="5.0.00" departLane="0" departSpeed="max" departPos="0"/>
    <trip id="132" depart="257.00" from="25.0.00" to="-9.0.00" departLane="0" departSpeed="max" departPos="0"/>
    <trip id="133" depart="260.00" from="11.0.00" to="-5.0.00" departLane="0" departSpeed="max" departPos="0"/>
    <trip id="134" depart="268.00" from="10.0.00" to="-25.0.00" departLane="0" departSpeed="max" departPos="0"/>
    <trip id="135" depart="271.00" from="19.0.00" to="11.0.00" departLane="0" departSpeed="max" departPos="0"/>
    <trip id="136" depart="271.00" from="23.0.00" to="-10.0.00" departLane="0" departSpeed="max" departPos="0"/>
    <trip id="137" depart="276.00" from="0.0.00" to="12.0.00" departLane="0" departSpeed="max" departPos="0"/>
    <trip id="138" depart="280.00" from="-8.0.00" to="8.0.00" departLane="0" departSpeed="max" departPos="0"/>
    <trip id="139" depart="286.00" from="-11.0.00" to="16.0.00" departLane="0" departSpeed="max" departPos="0"/>
    <trip id="140" depart="289.00" from="16.0.00" to="3.0.00" departLane="0" departSpeed="max" departPos="0"/>
    <trip id="141" depart="291.00" from="23.0.00" to="-23.0.00" departLane="0" departSpeed="max" departPos="0"/>
    <trip id="142" depart="292.00" from="10.0.00" to="11.0.00" departLane="0" departSpeed="max" departPos="0"/>
    <trip id="143" depart="293.00" from="-12.0.00" to="3.0.00" departLane="0" departSpeed="max" departPos="0"/>
    <trip id="144" depart="294.00" from="6.0.00" to="-16.0.00" departLane="0" departSpeed="max" departPos="0"/>
    <trip id="145" depart="296.00" from="24.0.00" to="5.0.00" departLane="0" departSpeed="max" departPos="0"/>
    <trip id="146" depart="297.00" from="-6.0.00" to="-25.0.00" departLane="0" departSpeed="max" departPos="0"/>
    <trip id="147" depart="300.00" from="-4.0.00" to="-9.0.00" departLane="0" departSpeed="max" departPos="0"/>
    <trip id="148" depart="300.00" from="11.0.00" to="11.0.00" departLane="0" departSpeed="max" departPos="0"/>
    <trip id="149" depart="305.00" from="13.0.00" to="-9.0.00" departLane="0" departSpeed="max" departPos="0"/>
    <trip id="150" depart="314.00" from="-22.0.00" to="20.0.00" departLane="0" departSpeed="max" departPos="0"/>
    <trip id="151" depart="315.00" from="-16.0.00" to="10.0.00" departLane="0" departSpeed="max" departPos="0"/>
    <trip id="152" depart="320.00" from="8.0.00" to="-16.0.00" departLane="0" departSpeed="max" departPos="0"/>
    <trip id="153" depart="325.00" from="10.0.00" to="-8.0.00" departLane="0" departSpeed="max" departPos="0"/>
    <trip id="154" depart="328.00" from="-20.0.00" to="-10.0.00" departLane="0" departSpeed="max" departPos="0"/>
    <trip id="155" depart="330.00" from="-11.0.00" to="23.0.00" departLane="0" departSpeed="max" departPos="0"/>
    <trip id="156" depart="332.00" from="7.0.00" to="-24.0.00" departLane="0" departSpeed="max" departPos="0"/>
    <trip id="157" depart="333.00" from="5.0.00" to="-16.0.00" departLane="0" departSpeed="max" departPos="0"/>
    <trip id="158" depart="336.00" from="-5.0.00" to="-12.0.00" departLane="0" departSpeed="max" departPos="0"/>
    <trip id="159" depart="338.00" from="-3.0.00" to="-7.0.00" departLane="0" departSpeed="max" departPos="0"/>
    <trip id="160" depart="340.00" from="19.0.00" to="10.0.00" departLane="0" departSpeed="max" departPos="0"/>
    <trip id="161" depart="342.00" from="-13.0.00" to="24.0.00" departLane="0" departSpeed="max" departPos="0"/>
    <trip id="162" depart="344.00" from="23.0.00" to="-21.0.00" departLane="0" departSpeed="max" departPos="0"/>
    <trip id="163" depart="345.00" from="11.0.00" to="-11.0.00" departLane="0" departSpeed="max" departPos="0"/>
    <trip id="164" depart="346.00" from="-19.0.00" to="3.0.00" departLane="0" departSpeed="max" departPos="0"/>
    <trip id="165" depart="347.00" from="6.0.00" to="-0.0.00" departLane="0" departSpeed="max" departPos="0"/>
    <trip id="166" depart="348.00" from="-16.0.00" to="-22.0.00" departLane="0" departSpeed="max" departPos="0"/>
    <trip id="167" depart="348.00" from="18.0.00" to="-10.0.00" departLane="0" departSpeed="max" departPos="0"/>
    <trip id="168" depart="349.00" from="23.0.00" to="-21.0.00" departLane="0" departSpeed="max" departPos="0"/>
    <trip id="169" depart="350.00" from="-11.0.00" to="20.0.00" departLane="0" departSpeed="max" departPos="0"/>
    <trip id="170" depart="353.00" from="0.0.00" to="6.0.00" departLane="0" departSpeed="max" departPos="0"/>
    <trip id="171" depart="353.00" from="23.0.00" to="3.0.00" departLane="0" departSpeed="max" departPos="0"/>
    <trip id="172" depart="355.00" from="-9.0.00" to="-6.0.00" departLane="0" departSpeed="max" departPos="0"/>
    <trip id="173" depart="357.00" from="-12.0.00" to="13.0.00" departLane="0" departSpeed="max" departPos="0"/>
    <trip id="174" depart="358.00" from="-22.0.00" to="16.0.00" departLane="0" departSpeed="max" departPos="0"/>
    <trip id="175" depart="361.00" from="20.0.00" to="3.0.00" departLane="0" departSpeed="max" departPos="0"/>
    <trip id="176" depart="363.00" from="-8.0.00" to="-21.0.00" departLane="0" departSpeed="max" departPos="0"/>
    <trip id="177" depart="365.00" from="-6.0.00" to="17.0.00" departLane="0" departSpeed="max" departPos="0"/>
    <trip id="178" depart="366.00" from="6.0.00" to="-11.0.00" departLane="0" departSpeed="max" departPos="0"/>
    <trip id="179" depart="367.00" from="-12.0.00" to="20.0.00" departLane="0" departSpeed="max" departPos="0"/>
    <trip id="180" depart="370.00" from="-3.0.00" to="17.0.00" departLane="0" departSpeed="max" departPos="0"/>
    <trip id="181" depart="374.00" from="18.0.00" to="-20.0.00" departLane="0" departSpeed="max" departPos="0"/>
    <trip id="182" depart="375.00" from="25.0.00" to="-3.0.00" departLane="0" departSpeed="max" departPos="0"/>
    <trip id="183" depart="379.00" from="7.0.00" to="24.0.00" departLane="0" departSpeed="max" departPos="0"/>
    <trip id="184" depart="380.00" from="20.0.00" to="-24.0.00" departLane="0" departSpeed="max" departPos="0"/>
    <trip id="185" depart="381.00" from="3.0.00" to="11.0.00" departLane="0" departSpeed="max" departPos="0"/>
    <trip id="186" depart="382.00" from="16.0.00" to="-10.0.00" departLane="0" departSpeed="max" departPos="0"/>
    <trip id="187" depart="383.00" from="-5.0.00" to="-25.0.00" departLane="0" departSpeed="max" departPos="0"/>
    <trip id="188" depart="386.00" from="-11.0.00" to="-18.0.00" departLane="0" departSpeed="max" departPos="0"/>
    <trip id="189" depart="390.00" from="-6.0.00" to="-23.0.00" departLane="0" departSpeed="max" departPos="0"/>
    <trip id="190" depart="392.00" from="-4.0.00" to="12.0.00" departLane="0" departSpeed="max" departPos="0"/>
    <trip id="191" depart="393.00" from="-23.0.00" to="-20.0.00" departLane="0" departSpeed="max" departPos="0"/>
    <trip id="192" depart="393.00" from="-21.0.00" to="-25.0.00" departLane="0" departSpeed="max" departPos="0"/>
    <trip id="193" depart="394.00" from="21.0.00" to="-19.0.00" departLane="0" departSpeed="max" departPos="0"/>
    <trip id="194" depart="397.00" from="3.0.00" to="-10.0.00" departLane="0" departSpeed="max" departPos="0"/>
    <trip id="195" depart="397.00" from="6.0.00" to="3.0.00" departLane="0" departSpeed="max" departPos="0"/>
    <trip id="196" depart="400.00" from="-0.0.00" to="-24.0.00" departLane="0" departSpeed="max" departPos="0"/>
    <trip id="197" depart="402.00" from="25.0.00" to="-21.0.00" departLane="0" departSpeed="max" departPos="0"/>
    <trip id="198" depart="406.00" from="0.0.00" to="-13.0.00" departLane="0" departSpeed="max" departPos="0"/>
    <trip id="199" depart="409.00" from="-16.0.00" to="-19.0.00" departLane="0" departSpeed="max" departPos="0"/>
    <trip id="200" depart="411.00" from="22.0.00" to="-9.0.00" departLane="0" departSpeed="max" departPos="0"/>
    <trip id="201" depart="416.00" from="-11.0.00" to="-7.0.00" departLane="0" departSpeed="max" departPos="0"/>
    <trip id="202" depart="418.00" from="0.0.00" to="-24.0.00" departLane="0" departSpeed="max" departPos="0"/>
    <trip id="203" depart="419.00" from="25.0.00" to="-12.0.00" departLane="0" departSpeed="max" departPos="0"/>
    <trip id="204" depart="426.00" from="-11.0.00" to="-13.0.00" departLane="0" departSpeed="max" departPos="0"/>
    <trip id="205" depart="428.00" from="-20.0.00" to="-7.0.00" departLane="0" departSpeed="max" departPos="0"/>
    <trip id="206" depart="430.00" from="-3.0.00" to="-23.0.00" departLane="0" departSpeed="max" departPos="0"/>
    <trip id="207" depart="433.00" from="-12.0.00" to="18.0.00" departLane="0" departSpeed="max" departPos="0"/>
    <trip id="208" depart="437.00" from="-24.0.00" to="8.0.00" departLane="0" departSpeed="max" departPos="0"/>
    <trip id="209" depart="446.00" from="-19.0.00" to="6.0.00" departLane="0" departSpeed="max" departPos="0"/>
    <trip id="210" depart="447.00" from="-16.0.00" to="-12.0.00" departLane="0" departSpeed="max" departPos="0"/>
    <trip id="211" depart="448.00" from="22.0.00" to="24.0.00" departLane="0" departSpeed="max" departPos="0"/>
    <trip id="212" depart="449.00" from="-24.0.00" to="21.0.00" departLane="0" departSpeed="max" departPos="0"/>
    <trip id="213" depart="449.00" from="-4.0.00" to="-18.0.00" departLane="0" departSpeed="max" departPos="0"/>
    <trip id="214" depart="451.00" from="-6.0.00" to="-6.0.00" departLane="0" departSpeed="max" departPos="0"/>
    <trip id="215" depart="452.00" from="-6.0.00" to="-23.0.00" departLane="0" departSpeed="max" departPos="0"/>
    <trip id="216" depart="461.00" from="-21.0.00" to="16.0.00" departLane="0" departSpeed="max" departPos="0"/>
    <trip id="217" depart="463.00" from="25.0.00" to="3.0.00" departLane="0" departSpeed="max" departPos="0"/>
    <trip id="218" depart="465.00" from="-6.0.00" to="6.0.00" departLane="0" departSpeed="max" departPos="0"/>
    <trip id="219" depart="466.00" from="-8.0.00" to="-25.0.00" departLane="0" departSpeed="max" departPos="0"/>
    <trip id="220" depart="466.00" from="-11.0.00" to="0.0.00" departLane="0" departSpeed="max" departPos="0"/>
    <trip id="221" depart="467.00" from="9.0.00" to="-3.0.00" departLane="0" departSpeed="max" departPos="0"/>
    <trip id="222" depart="467.00" from="7.0.00" to="24.0.00" departLane="0" departSpeed="max" departPos="0"/>
    <trip id="223" depart="469.00" from="-22.0.00" to="24.0.00" departLane="0" departSpeed="max" departPos="0"/>
    <trip id="224" depart="470.00" from="20.0.00" to="-7.0.00" departLane="0" departSpeed="max" departPos="0"/>
    <trip id="225" depart="470.00" from="-12.0.00" to="-22.0.00" departLane="0" departSpeed="max" departPos="0"/>
    <trip id="226" depart="473.00" from="-22.0.00" to="-24.0.00" departLane="0" departSpeed="max" departPos="0"/>
    <trip id="227" depart="473.00" from="-5.0.00" to="22.0.00" departLane="0" departSpeed="max" departPos="0"/>
    <trip id="228" depart="474.00" from="6.0.00" to="12.0.00" departLane="0" departSpeed="max" departPos="0"/>
    <trip id="229" depart="475.00" from="0.0.00" to="-21.0.00" departLane="0" departSpeed="max" departPos="0"/>
    <trip id="230" depart="475.00" from="-6.0.00" to="13.0.00" departLane="0" departSpeed="max" departPos="0"/>
    <trip id="231" depart="476.00" from="-5.0.00" to="17.0.00" departLane="0" departSpeed="max" departPos="0"/>
    <trip id="232" depart="476.00" from="8.0.00" to="-11.0.00" departLane="0" departSpeed="max" departPos="0"/>
    <trip id="233" depart="481.00" from="23.0.00" to="-25.0.00" departLane="0" departSpeed="max" departPos="0"/>
    <trip id="234" depart="484.00" from="10.0.00" to="23.0.00" departLane="0" departSpeed="max" departPos="0"/>
    <trip id="235" depart="485.00" from="23.0.00" to="-8.0.00" departLane="0" departSpeed="max" departPos="0"/>
    <trip id="236" depart="487.00" from="23.0.00" to="-8.0.00" departLane="0" departSpeed="max" departPos="0"/>
    <trip id="237" depart="488.00" from="-18.0.00" to="-10.0.00" departLane="0" departSpeed="max" departPos="0"/>
    <trip id="238" depart="491.00" from="-3.0.00" to="22.0.00" departLane="0" departSpeed="max" departPos="0"/>
    <trip id="239" depart="493.00" from="-3.0.00" to="4.0.00" departLane="0" departSpeed="max" departPos="0"/>
    <trip id="240" depart="498.00" from="13.0.00" to="23.0.00" departLane="0" departSpeed="max" departPos="0"/>
    <trip id="241" depart="500.00" from="18.0.00" to="-24.0.00" departLane="0" departSpeed="max" departPos="0"/>
    <trip id="242" depart="502.00" from="3.0.00" to="-3.0.00" departLane="0" departSpeed="max" departPos="0"/>
    <trip id="243" depart="505.00" from="16.0.00" to="-3.0.00" departLane="0" departSpeed="max" departPos="0"/>
    <trip id="244" depart="507.00" from="13.0.00" to="22.0.00" departLane="0" departSpeed="max" departPos="0"/>
    <trip id="245" depart="507.00" from="-11.0.00" to="22.0.00" departLane="0" departSpeed="max" departPos="0"/>
    <trip id="246" depart="514.00" from="-13.0.00" to="20.0.00" departLane="0" departSpeed="max" departPos="0"/>
    <trip id="247" depart="519.00" from="3.0.00" to="-8.0.00" departLane="0" departSpeed="max" departPos="0"/>
    <trip id="248" depart="521.00" from="19.0.00" to="24.0.00" departLane="0" departSpeed="max" departPos="0"/>
    <trip id="249" depart="522.00" from="10.0.00" to="4.0.00" departLane="0" departSpeed="max" departPos="0"/>
    <trip id="250" depart="526.00" from="-19.0.00" to="-16.0.00" departLane="0" departSpeed="max" departPos="0"/>
    <trip id="251" depart="527.00" from="11.0.00" to="-3.0.00" departLane="0" departSpeed="max" departPos="0"/>
    <trip id="252" depart="529.00" from="-23.0.00" to="9.0.00" departLane="0" departSpeed="max" departPos="0"/>
    <trip id="253" depart="531.00" from="8.0.00" to="16.0.00" departLane="0" departSpeed="max" departPos="0"/>
    <trip id="254" depart="535.00" from="8.0.00" to="-7.0.00" departLane="0" departSpeed="max" departPos="0"/>
    <trip id="255" depart="536.00" from="-13.0.00" to="-18.0.00" departLane="0" departSpeed="max" departPos="0"/>
    <trip id="256" depart="536.00" from="-23.0.00" to="19.0.00" departLane="0" departSpeed="max" departPos="0"/>
    <trip id="257" depart="540.00" from="-23.0.00" to="10.0.00" departLane="0" departSpeed="max" departPos="0"/>
    <trip id="258" depart="541.00" from="7.0.00" to="-18.0.00" departLane="0" departSpeed="max" departPos="0"/>
    <trip id="259" depart="545.00" from="-10.0.00" to="16.0.00" departLane="0" departSpeed="max" departPos="0"/>
    <trip id="260" depart="552.00" from="-11.0.00" to="-7.0.00" departLane="0" departSpeed="max" departPos="0"/>
    <trip id="261" depart="553.00" from="13.0.00" to="-24.0.00" departLane="0" departSpeed="max" departPos="0"/>
    <trip id="262" depart="555.00" from="-3.0.00" to="11.0.00" departLane="0" departSpeed="max" departPos="0"/>