<?xml version="1.0" encoding="UTF-8"?>

<!-- generated on 2021-11-07 06:40:40 by Eclipse SUMO duarouter Version 1.10.0
<configuration xmlns:xsi="http://www.w3.org/2001/XMLSchema-instance" xsi:noNamespaceSchemaLocation="http://sumo.dlr.de/xsd/duarouterConfiguration.xsd">

    <input>
        <net-file value="sumo2morai/sumo/nets/suburb_02.net.xml"/>
        <route-files value="trips.trips.xml"/>
    </input>

    <output>
        <output-file value="sumo2morai/sumo/routes/suburb_02.rou.xml"/>
        <alternatives-output value="sumo2morai/sumo/routes/suburb_02.rou.alt.xml"/>
    </output>

    <time>
        <begin value="0"/>
        <end value="3600"/>
    </time>

    <report>
        <no-warnings value="true"/>
        <ignore-errors value="true"/>
        <no-step-log value="true"/>
    </report>

</configuration>
-->

<routes xmlns:xsi="http://www.w3.org/2001/XMLSchema-instance" xsi:noNamespaceSchemaLocation="http://sumo.dlr.de/xsd/routes_file.xsd">
    <vehicle id="0" depart="0.00" departLane="0" departPos="0.00" departSpeed="max">
        <route edges="-20.0.00 -21.0.00 -7.0.00 7.0.00 21.0.00 20.0.00 19.0.00 18.0.00 17.0.00 -17.0.00 -18.0.00 -19.0.00"/>
    </vehicle>
    <vehicle id="1" depart="1.00" departLane="0" departPos="0.00" departSpeed="max">
        <route edges="-18.0.00 -19.0.00 3.0.00 2.0.00 1.0.00 0.0.00"/>
    </vehicle>
    <vehicle id="2" depart="1.00" departLane="0" departPos="0.00" departSpeed="max">
        <route edges="-17.0.00 -18.0.00 -19.0.00 -20.0.00 -21.0.00 6.0.00 16.0.00 15.0.00"/>
    </vehicle>
    <vehicle id="3" depart="2.00" departLane="0" departPos="0.00" departSpeed="max">
        <route edges="22.0.00 -12.0.00 -8.0.00 -9.0.00 -0.0.00 -1.0.00 14.0.00 13.0.00 -24.0.00 17.0.00"/>
    </vehicle>
    <vehicle id="4" depart="11.00" departLane="0" departPos="0.00" departSpeed="max">
        <route edges="-22.0.00 -23.0.00 -24.0.00 -18.0.00 -19.0.00 -20.0.00"/>
    </vehicle>
    <vehicle id="5" depart="18.00" departLane="0" departPos="0.00" departSpeed="max">
        <route edges="19.0.00 18.0.00 17.0.00 -17.0.00 -18.0.00 -19.0.00 -20.0.00 -21.0.00 6.0.00 16.0.00"/>
    </vehicle>
    <vehicle id="6" depart="22.00" departLane="0" departPos="0.00" departSpeed="max">
        <route edges="-22.0.00 -23.0.00 -13.0.00 -14.0.00 -15.0.00 -16.0.00 5.0.00 10.0.00 -0.0.00"/>
    </vehicle>
    <vehicle id="7" depart="51.00" departLane="0" departPos="0.00" departSpeed="max">
        <route edges="23.0.00 22.0.00 -12.0.00 -8.0.00 -9.0.00 -10.0.00 4.0.00 -4.0.00 10.0.00 9.0.00 8.0.00 12.0.00 -22.0.00"/>
    </vehicle>
    <vehicle id="8" depart="54.00" departLane="0" departPos="0.00" departSpeed="max">
        <route edges="21.0.00 20.0.00 3.0.00 2.0.00 14.0.00"/>
    </vehicle>
    <vehicle id="9" depart="55.00" departLane="0" departPos="0.00" departSpeed="max">
        <route edges="-11.0.00 -25.0.00 25.0.00 11.0.00 -5.0.00 -6.0.00 21.0.00 20.0.00 3.0.00"/>
    </vehicle>
    <vehicle id="10" depart="60.00" departLane="0" departPos="0.00" departSpeed="max">
        <route edges="2.0.00 1.0.00 0.0.00 9.0.00 8.0.00 12.0.00 -22.0.00 -23.0.00"/>
    </vehicle>
    <vehicle id="11" depart="64.00" departLane="0" departPos="0.00" departSpeed="max">
        <route edges="-17.0.00 -18.0.00 -19.0.00 3.0.00 2.0.00 1.0.00 0.0.00 9.0.00 8.0.00 12.0.00 -22.0.00 -23.0.00"/>
    </vehicle>
    <vehicle id="12" depart="68.00" departLane="0" departPos="0.00" departSpeed="max">
        <route edges="6.0.00 16.0.00 15.0.00 1.0.00"/>
    </vehicle>
    <vehicle id="13" depart="73.00" departLane="0" departPos="0.00" departSpeed="max">
        <route edges="-20.0.00 -21.0.00 -7.0.00 7.0.00 21.0.00 20.0.00 3.0.00 2.0.00 -15.0.00 -16.0.00 -6.0.00"/>
    </vehicle>
    <vehicle id="14" depart="77.00" departLane="0" departPos="0.00" departSpeed="max">
        <route edges="-19.0.00 3.0.00 2.0.00 14.0.00 13.0.00 23.0.00 22.0.00 -12.0.00 -8.0.00"/>
    </vehicle>
    <vehicle id="15" depart="79.00" departLane="0" departPos="0.00" departSpeed="max">
        <route edges="20.0.00 3.0.00 2.0.00"/>
    </vehicle>
    <vehicle id="16" depart="89.00" departLane="0" departPos="0.00" departSpeed="max">
        <route edges="-23.0.00 -24.0.00 -18.0.00 -19.0.00 3.0.00 2.0.00"/>
    </vehicle>
    <vehicle id="17" depart="91.00" departLane="0" departPos="0.00" departSpeed="max">
        <route edges="-23.0.00 -13.0.00 -14.0.00 1.0.00 0.0.00 -10.0.00 -5.0.00 16.0.00"/>
    </vehicle>
    <vehicle id="18" depart="93.00" departLane="0" departPos="0.00" departSpeed="max">
        <route edges="-3.0.00 -20.0.00 -21.0.00 6.0.00 5.0.00 -11.0.00 -25.0.00 25.0.00 11.0.00"/>
    </vehicle>
    <vehicle id="19" depart="93.00" departLane="0" departPos="0.00" departSpeed="max">
        <route edges="14.0.00 13.0.00 -24.0.00 17.0.00 -17.0.00 24.0.00 -13.0.00 -14.0.00"/>
    </vehicle>
    <vehicle id="20" depart="95.00" departLane="0" departPos="0.00" departSpeed="max">
        <route edges="1.0.00 0.0.00 9.0.00"/>
    </vehicle>
    <vehicle id="21" depart="97.00" departLane="0" departPos="0.00" departSpeed="max">
        <route edges="-15.0.00 -16.0.00 5.0.00 10.0.00 9.0.00 8.0.00 12.0.00 -22.0.00 -23.0.00 -13.0.00 -14.0.00"/>
    </vehicle>
    <vehicle id="22" depart="99.00" departLane="0" departPos="0.00" departSpeed="max">
        <route edges="-21.0.00 6.0.00 16.0.00"/>
    </vehicle>
    <vehicle id="23" depart="108.00" departLane="0" departPos="0.00" departSpeed="max">
        <route edges="24.0.00 -13.0.00 -14.0.00 -15.0.00 -16.0.00"/>
    </vehicle>
    <vehicle id="24" depart="110.00" departLane="0" departPos="0.00" departSpeed="max">
        <route edges="7.0.00 6.0.00 16.0.00 15.0.00 14.0.00 13.0.00 23.0.00 22.0.00 -12.0.00"/>
    </vehicle>
    <vehicle id="25" depart="117.00" departLane="0" departPos="0.00" departSpeed="max">
        <route edges="1.0.00 0.0.00 -10.0.00 -5.0.00 16.0.00 15.0.00 -2.0.00 -3.0.00 -20.0.00 -21.0.00"/>
    </vehicle>
    <vehicle id="26" depart="126.00" departLane="0" departPos="0.00" departSpeed="max">
        <route edges="-6.0.00 21.0.00 20.0.00 3.0.00 2.0.00 1.0.00 0.0.00 9.0.00 8.0.00 12.0.00"/>
    </vehicle>
    <vehicle id="27" depart="132.00" departLane="0" departPos="0.00" departSpeed="max">
        <route edges="-5.0.00 16.0.00 15.0.00 1.0.00 0.0.00 9.0.00 8.0.00 12.0.00 -22.0.00 -23.0.00"/>
    </vehicle>
    <vehicle id="28" depart="154.00" departLane="0" departPos="0.00" departSpeed="max">
        <route edges="0.0.00 9.0.00 8.0.00 12.0.00"/>
    </vehicle>
    <vehicle id="29" depart="158.00" departLane="0" departPos="0.00" departSpeed="max">
        <route edges="-11.0.00 -25.0.00 25.0.00 11.0.00 10.0.00 -0.0.00 -1.0.00 14.0.00"/>
    </vehicle>
    <vehicle id="30" depart="164.00" departLane="0" departPos="0.00" departSpeed="max">
        <route edges="22.0.00 -12.0.00 -8.0.00 -9.0.00 -10.0.00 4.0.00"/>
    </vehicle>
    <vehicle id="31" depart="178.00" departLane="0" departPos="0.00" departSpeed="max">
        <route edges="1.0.00 0.0.00 -10.0.00 -5.0.00 -6.0.00 -7.0.00"/>
    </vehicle>
    <vehicle id="32" depart="180.00" departLane="0" departPos="0.00" departSpeed="max">
        <route edges="3.0.00 2.0.00 -15.0.00 -16.0.00 5.0.00 10.0.00"/>
    </vehicle>
    <vehicle id="33" depart="185.00" departLane="0" departPos="0.00" departSpeed="max">
        <route edges="-24.0.00 -18.0.00 -19.0.00 -20.0.00 -21.0.00 -7.0.00"/>
    </vehicle>
    <vehicle id="34" depart="189.00" departLane="0" departPos="0.00" departSpeed="max">
        <route edges="21.0.00 20.0.00 19.0.00 18.0.00 24.0.00 -13.0.00 -14.0.00 -2.0.00"/>
    </vehicle>
    <vehicle id="35" depart="191.00" departLane="0" departPos="0.00" departSpeed="max">
        <route edges="25.0.00 11.0.00 10.0.00 9.0.00 8.0.00 12.0.00 -22.0.00 -23.0.00 -13.0.00 -14.0.00"/>
    </vehicle>
    <vehicle id="36" depart="192.00" departLane="0" departPos="0.00" departSpeed="max">
        <route edges="-0.0.00 -1.0.00 -15.0.00 -16.0.00 -6.0.00 21.0.00 20.0.00"/>
    </vehicle>
    <vehicle id="37" depart="210.00" departLane="0" departPos="0.00" departSpeed="max">
        <route edges="6.0.00 16.0.00 15.0.00 14.0.00 13.0.00 23.0.00 22.0.00"/>
    </vehicle>
    <vehicle id="38" depart="211.00" departLane="0" departPos="0.00" departSpeed="max">
        <route edges="25.0.00 11.0.00"/>
    </vehicle>
    <vehicle id="39" depart="212.00" departLane="0" departPos="0.00" departSpeed="max">
        <route edges="2.0.00 14.0.00 13.0.00 -24.0.00 -18.0.00 -19.0.00"/>
    </vehicle>
    <vehicle id="40" depart="217.00" departLane="0" departPos="0.00" departSpeed="max">
        <route edges="-21.0.00 -7.0.00 7.0.00 21.0.00 20.0.00 19.0.00 18.0.00 17.0.00 -17.0.00 -18.0.00 -19.0.00"/>
    </vehicle>
    <vehicle id="41" depart="218.00" departLane="0" departPos="0.00" departSpeed="max">
        <route edges="2.0.00 -15.0.00 -16.0.00"/>
    </vehicle>
    <vehicle id="42" depart="220.00" departLane="0" departPos="0.00" departSpeed="max">
        <route edges="6.0.00 16.0.00 15.0.00 -2.0.00 -3.0.00 19.0.00 18.0.00 24.0.00"/>
    </vehicle>
    <vehicle id="43" depart="221.00" departLane="0" departPos="0.00" departSpeed="max">
        <route edges="-22.0.00 -23.0.00 -13.0.00 -14.0.00 -15.0.00 -16.0.00 -6.0.00 21.0.00"/>
    </vehicle>
    <vehicle id="44" depart="246.00" departLane="0" departPos="0.00" departSpeed="max">
        <route edges="-23.0.00 -24.0.00 -18.0.00 -19.0.00 3.0.00 2.0.00"/>
    </vehicle>
    <vehicle id="45" depart="256.00" departLane="0" departPos="0.00" departSpeed="max">
        <route edges="-10.0.00 -5.0.00 16.0.00 15.0.00 1.0.00 0.0.00"/>
    </vehicle>
    <vehicle id="46" depart="257.00" departLane="0" departPos="0.00" departSpeed="max">
        <route edges="6.0.00 16.0.00 15.0.00 14.0.00 13.0.00 23.0.00"/>
    </vehicle>
    <vehicle id="47" depart="259.00" departLane="0" departPos="0.00" departSpeed="max">
        <route edges="-11.0.00 -25.0.00 25.0.00 11.0.00 10.0.00 -0.0.00 -1.0.00 -2.0.00 -3.0.00 -20.0.00"/>
    </vehicle>
    <vehicle id="48" depart="262.00" departLane="0" departPos="0.00" departSpeed="max">
        <route edges="0.0.00 -10.0.00 -5.0.00 16.0.00 15.0.00 -2.0.00"/>
    </vehicle>
    <vehicle id="49" depart="266.00" departLane="0" departPos="0.00" departSpeed="max">
        <route edges="21.0.00 20.0.00 3.0.00 2.0.00 14.0.00 13.0.00 -24.0.00"/>
    </vehicle>
    <vehicle id="50" depart="281.00" departLane="0" departPos="0.00" departSpeed="max">
        <route edges="-11.0.00 -25.0.00 25.0.00 11.0.00 -5.0.00 -6.0.00 21.0.00 20.0.00"/>
    </vehicle>
    <vehicle id="51" depart="290.00" departLane="0" departPos="0.00" departSpeed="max">
        <route edges="10.0.00 -0.0.00 -1.0.00 -15.0.00 -16.0.00 5.0.00 -11.0.00 -25.0.00"/>
    </vehicle>
    <vehicle id="52" depart="300.00" departLane="0" departPos="0.00" departSpeed="max">
        <route edges="-10.0.00 -5.0.00 16.0.00 15.0.00 14.0.00"/>
    </vehicle>
    <vehicle id="53" depart="310.00" departLane="0" departPos="0.00" departSpeed="max">
        <route edges="7.0.00 6.0.00 16.0.00 15.0.00 1.0.00 0.0.00"/>
    </vehicle>
    <vehicle id="54" depart="322.00" departLane="0" departPos="0.00" departSpeed="max">
        <route edges="-8.0.00 -9.0.00 -10.0.00 4.0.00 -4.0.00 10.0.00 9.0.00 8.0.00"/>
    </vehicle>
    <vehicle id="55" depart="325.00" departLane="0" departPos="0.00" departSpeed="max">
        <route edges="7.0.00 21.0.00 20.0.00 19.0.00 18.0.00 24.0.00 -13.0.00"/>
    </vehicle>
    <vehicle id="56" depart="325.00" departLane="0" departPos="0.00" departSpeed="max">
        <route edges="-22.0.00 -23.0.00 -13.0.00 -14.0.00 -15.0.00"/>
    </vehicle>
    <vehicle id="57" depart="338.00" departLane="0" departPos="0.00" departSpeed="max">
        <route edges="10.0.00 -0.0.00 -1.0.00 -15.0.00 -16.0.00 5.0.00"/>
    </vehicle>
    <vehicle id="58" depart="344.00" departLane="0" departPos="0.00" departSpeed="max">
        <route edges="11.0.00 10.0.00 9.0.00 8.0.00 12.0.00 -22.0.00 -23.0.00 -13.0.00"/>
    </vehicle>
    <vehicle id="59" depart="351.00" departLane="0" departPos="0.00" departSpeed="max">
        <route edges="15.0.00 14.0.00 13.0.00 -24.0.00 17.0.00"/>
    </vehicle>
    <vehicle id="60" depart="363.00" departLane="0" departPos="0.00" departSpeed="max">
        <route edges="-4.0.00 -5.0.00 -6.0.00 21.0.00 20.0.00 3.0.00 2.0.00"/>
    </vehicle>
    <vehicle id="61" depart="367.00" departLane="0" departPos="0.00" departSpeed="max">
        <route edges="-1.0.00 -15.0.00 -16.0.00 5.0.00 10.0.00 9.0.00 8.0.00 12.0.00 -22.0.00"/>
    </vehicle>
    <vehicle id="62" depart="370.00" departLane="0" departPos="0.00" departSpeed="max">
        <route edges="-17.0.00 24.0.00 23.0.00 22.0.00 -12.0.00"/>
    </vehicle>
    <vehicle id="63" depart="371.00" departLane="0" departPos="0.00" departSpeed="max">
        <route edges="12.0.00 -22.0.00 -23.0.00 -24.0.00 17.0.00"/>
    </vehicle>
    <vehicle id="64" depart="384.00" departLane="0" departPos="0.00" departSpeed="max">
        <route edges="6.0.00 5.0.00 10.0.00 9.0.00 8.0.00"/>
    </vehicle>
    <vehicle id="65" depart="394.00" departLane="0" departPos="0.00" departSpeed="max">
        <route edges="24.0.00 -13.0.00 -14.0.00 -2.0.00 -3.0.00 -20.0.00 -21.0.00 6.0.00"/>
    </vehicle>
    <vehicle id="66" depart="396.00" departLane="0" departPos="0.00" departSpeed="max">
        <route edges="0.0.00 -10.0.00 -11.0.00 -25.0.00"/>
    </vehicle>
    <vehicle id="67" depart="397.00" departLane="0" departPos="0.00" departSpeed="max">
        <route edges="10.0.00 -0.0.00"/>
    </vehicle>
    <vehicle id="68" depart="398.00" departLane="0" departPos="0.00" departSpeed="max">
        <route edges="23.0.00 22.0.00 -12.0.00 -8.0.00 -9.0.00 -10.0.00 -5.0.00 16.0.00"/>
    </vehicle>
    <vehicle id="69" depart="403.00" departLane="0" departPos="0.00" departSpeed="max">
        <route edges="-16.0.00 5.0.00 10.0.00 -0.0.00 -1.0.00 14.0.00 13.0.00 23.0.00 22.0.00 -12.0.00 -8.0.00 -9.0.00"/>
    </vehicle>
    <vehicle id="70" depart="406.00" departLane="0" departPos="0.00" departSpeed="max">
        <route edges="6.0.00 5.0.00 10.0.00 9.0.00 8.0.00 12.0.00 -22.0.00 -23.0.00"/>
    </vehicle>
    <vehicle id="71" depart="411.00" departLane="0" departPos="0.00" departSpeed="max">
        <route edges="-20.0.00 -21.0.00 6.0.00 5.0.00 10.0.00 9.0.00"/>
    </vehicle>
    <vehicle id="72" depart="415.00" departLane="0" departPos="0.00" departSpeed="max">
        <route edges="-21.0.00 6.0.00 5.0.00 -11.0.00 -25.0.00"/>
    </vehicle>
    <vehicle id="73" depart="416.00" departLane="0" departPos="0.00" departSpeed="max">
        <route edges="-23.0.00 -24.0.00 17.0.00 -17.0.00 24.0.00 23.0.00 22.0.00 -12.0.00"/>
    </vehicle>
    <vehicle id="74" depart="436.00" departLane="0" departPos="0.00" departSpeed="max">
        <route edges="-2.0.00 -3.0.00 19.0.00 18.0.00 24.0.00 -13.0.00 -14.0.00 1.0.00 0.0.00"/>
    </vehicle>
    <vehicle id="75" depart="438.00" departLane="0" departPos="0.00" departSpeed="max">
        <route edges="-13.0.00 -14.0.00 1.0.00 0.0.00 -10.0.00 -5.0.00"/>
    </vehicle>
    <vehicle id="76" depart="444.00" departLane="0" departPos="0.00" departSpeed="max">
        <route edges="13.0.00 -24.0.00 -18.0.00"/>
    </vehicle>
    <vehicle id="77" depart="454.00" departLane="0" departPos="0.00" departSpeed="max">
        <route edges="-14.0.00 -2.0.00 -3.0.00 19.0.00 18.0.00 24.0.00 23.0.00 22.0.00"/>
    </vehicle>
    <vehicle id="78" depart="456.00" departLane="0" departPos="0.00" departSpeed="max">
        <route edges="20.0.00 3.0.00 2.0.00 1.0.00 0.0.00 9.0.00 8.0.00 12.0.00 -22.0.00"/>
    </vehicle>
    <vehicle id="79" depart="471.00" departLane="0" departPos="0.00" departSpeed="max">
        <route edges="21.0.00 20.0.00 19.0.00"/>
    </vehicle>
    <vehicle id="80" depart="476.00" departLane="0" departPos="0.00" departSpeed="max">
        <route edges="7.0.00 21.0.00 20.0.00 19.0.00 18.0.00 17.0.00 -17.0.00 -18.0.00"/>
    </vehicle>
    <vehicle id="81" depart="480.00" departLane="0" departPos="0.00" departSpeed="max">
        <route edges="-8.0.00 -9.0.00 -0.0.00 -1.0.00 -2.0.00 -3.0.00 19.0.00 18.0.00 24.0.00 -13.0.00 -14.0.00"/>
    </vehicle>
    <vehicle id="82" depart="480.00" departLane="0" departPos="0.00" departSpeed="max">
        <route edges="18.0.00 24.0.00 23.0.00 22.0.00"/>
    </vehicle>
    <vehicle id="83" depart="484.00" departLane="0" departPos="0.00" departSpeed="max">
        <route edges="15.0.00 -2.0.00 -3.0.00 -20.0.00 -21.0.00 -7.0.00"/>
    </vehicle>
    <vehicle id="84" depart="493.00" departLane="0" departPos="0.00" departSpeed="max">
        <route edges="-11.0.00 -25.0.00 25.0.00 11.0.00 10.0.00 -0.0.00 -1.0.00 -2.0.00 -3.0.00 -20.0.00"/>
    </vehicle>
    <vehicle id="85" depart="494.00" departLane="0" departPos="0.00" departSpeed="max">
        <route edges="-10.0.00 -5.0.00 -6.0.00 21.0.00 20.0.00"/>
    </vehicle>
    <vehicle id="86" depart="503.00" departLane="0" departPos="0.00" departSpeed="max">
        <route edges="22.0.00 -12.0.00 -8.0.00 -9.0.00 -0.0.00 -1.0.00 -2.0.00 -3.0.00 -20.0.00 -21.0.00"/>
    </vehicle>
    <vehicle id="87" depart="512.00" departLane="0" departPos="0.00" departSpeed="max">
        <route edges="-17.0.00 24.0.00 23.0.00 22.0.00 -12.0.00 -8.0.00 -9.0.00 -10.0.00 -11.0.00 -25.0.00 25.0.00 11.0.00"/>
    </vehicle>
    <vehicle id="88" depart="514.00" departLane="0" departPos="0.00" departSpeed="max">
        <route edges="-4.0.00 10.0.00 -0.0.00 -1.0.00 -2.0.00"/>
    </vehicle>
    <vehicle id="89" depart="515.00" departLane="0" departPos="0.00" departSpeed="max">
        <route edges="15.0.00 14.0.00 13.0.00 23.0.00"/>
    </vehicle>
    <vehicle id="90" depart="527.00" departLane="0" departPos="0.00" departSpeed="max">
        <route edges="-4.0.00 -5.0.00 -6.0.00 -7.0.00"/>
    </vehicle>
    <vehicle id="91" depart="528.00" departLane="0" departPos="0.00" departSpeed="max">
        <route edges="23.0.00 22.0.00 -12.0.00 -8.0.00 -9.0.00 -10.0.00 4.0.00 -4.0.00 10.0.00 9.0.00"/>
    </vehicle>
    <vehicle id="92" depart="530.00" departLane="0" departPos="0.00" departSpeed="max">
        <route edges="-11.0.00 -25.0.00 25.0.00 11.0.00 4.0.00"/>
    </vehicle>
    <vehicle id="93" depart="532.00" departLane="0" departPos="0.00" departSpeed="max">
        <route edges="16.0.00 15.0.00 14.0.00 13.0.00 23.0.00 22.0.00 -12.0.00 -8.0.00 -9.0.00 -0.0.00 -1.0.00 -15.0.00 -16.0.00"/>
    </vehicle>
    <vehicle id="94" depart="533.00" departLane="0" departPos="0.00" departSpeed="max">
        <route edges="13.0.00 23.0.00 22.0.00 -12.0.00 -8.0.00 -9.0.00 -0.0.00 -1.0.00 -2.0.00"/>
    </vehicle>
    <vehicle id="95" depart="543.00" departLane="0" departPos="0.00" departSpeed="max">
        <route edges="18.0.00 17.0.00 -17.0.00 -18.0.00 -19.0.00 -20.0.00 -21.0.00 6.0.00"/>
    </vehicle>
    <vehicle id="96" depart="546.00" departLane="0" departPos="0.00" departSpeed="max">
        <route edges="6.0.00 16.0.00 15.0.00 14.0.00 13.0.00 -24.0.00 -18.0.00"/>
    </vehicle>
    <vehicle id="97" depart="547.00" departLane="0" departPos="0.00" departSpeed="max">
        <route edges="12.0.00 -22.0.00 -23.0.00 -13.0.00 -14.0.00 -15.0.00 -16.0.00 5.0.00"/>
    </vehicle>
    <vehicle id="98" depart="554.00" departLane="0" departPos="0.00" departSpeed="max">
        <route edges="12.0.00 -22.0.00 -23.0.00 -13.0.00 -14.0.00 -15.0.00 -16.0.00 5.0.00"/>
    </vehicle>
    <vehicle id="99" depart="558.00" departLane="0" departPos="0.00" departSpeed="max">
        <route edges="-3.0.00 19.0.00"/>
    </vehicle>
    <vehicle id="100" depart="563.00" departLane="0" departPos="0.00" departSpeed="max">
        <route edges="7.0.00 21.0.00 20.0.00 3.0.00 2.0.00 -15.0.00"/>
    </vehicle>
    <vehicle id="101" depart="568.00" departLane="0" departPos="0.00" departSpeed="max">
        <route edges="-16.0.00 5.0.00 10.0.00 9.0.00 8.0.00 12.0.00 -22.0.00"/>
    </vehicle>
    <vehicle id="102" depart="585.00" departLane="0" departPos="0.00" departSpeed="max">
        <route edges="-20.0.00 -21.0.00 -7.0.00 7.0.00 21.0.00 20.0.00 19.0.00 18.0.00 24.0.00 -13.0.00 -14.0.00"/>
    </vehicle>
    <vehicle id="103" depart="585.00" departLane="0" departPos="0.00" departSpeed="max">
        <route edges="3.0.00 2.0.00 1.0.00 0.0.00 9.0.00 8.0.00 12.0.00 -22.0.00 -23.0.00"/>
    </vehicle>
    <vehicle id="104" depart="586.00" departLane="0" departPos="0.00" departSpeed="max">
        <route edges="23.0.00 22.0.00 -12.0.00 -8.0.00 -9.0.00 -10.0.00 4.0.00 -4.0.00 10.0.00 9.0.00 8.0.00 12.0.00 -22.0.00"/>
    </vehicle>
    <vehicle id="105" depart="592.00" departLane="0" departPos="0.00" departSpeed="max">
        <route edges="-17.0.00 24.0.00 23.0.00 22.0.00"/>
    </vehicle>
    <vehicle id="106" depart="594.00" departLane="0" departPos="0.00" departSpeed="max">
        <route edges="-24.0.00 -18.0.00 -19.0.00 3.0.00 2.0.00 1.0.00 0.0.00 9.0.00 8.0.00 12.0.00"/>
    </vehicle>
    <vehicle id="107" depart="598.00" departLane="0" departPos="0.00" departSpeed="max">
        <route edges="21.0.00 20.0.00 3.0.00 2.0.00"/>
    </vehicle>
    <vehicle id="108" depart="598.00" departLane="0" departPos="0.00" departSpeed="max">
        <route edges="5.0.00 4.0.00 -4.0.00 -5.0.00 16.0.00 15.0.00"/>
    </vehicle>
    <vehicle id="109" depart="598.00" departLane="0" departPos="0.00" departSpeed="max">
        <route edges="-2.0.00 -3.0.00 -20.0.00 -21.0.00 -7.0.00 7.0.00 21.0.00"/>
    </vehicle>
    <vehicle id="110" depart="607.00" departLane="0" departPos="0.00" departSpeed="max">
        <route edges="18.0.00 24.0.00 23.0.00 22.0.00 -12.0.00 -8.0.00 -9.0.00 -10.0.00 -11.0.00 -25.0.00 25.0.00 11.0.00"/>
    </vehicle>
    <vehicle id="111" depart="618.00" departLane="0" departPos="0.00" departSpeed="max">
        <route edges="-20.0.00 -21.0.00 -7.0.00 7.0.00 21.0.00 20.0.00 3.0.00 2.0.00"/>
    </vehicle>
    <vehicle id="112" depart="620.00" departLane="0" departPos="0.00" departSpeed="max">
        <route edges="-17.0.00 24.0.00 23.0.00 22.0.00 -12.0.00 -8.0.00 -9.0.00 -10.0.00 -11.0.00 -25.0.00"/>
    </vehicle>
    <vehicle id="113" depart="620.00" departLane="0" departPos="0.00" departSpeed="max">
        <route edges="-22.0.00 -23.0.00 -24.0.00 17.0.00 -17.0.00 24.0.00 23.0.00 22.0.00"/>
    </vehicle>
    <vehicle id="114" depart="627.00" departLane="0" departPos="0.00" departSpeed="max">
        <route edges="3.0.00 2.0.00 14.0.00 13.0.00 -24.0.00 -18.0.00 -19.0.00 -20.0.00"/>
    </vehicle>
    <vehicle id="115" depart="628.00" departLane="0" departPos="0.00" departSpeed="max">
        <route edges="18.0.00 24.0.00 -13.0.00 -14.0.00 -15.0.00 -16.0.00 -6.0.00"/>
    </vehicle>
    <vehicle id="116" depart="633.00" departLane="0" departPos="0.00" departSpeed="max">
        <route edges="-9.0.00 -0.0.00 -1.0.00 14.0.00 13.0.00 -24.0.00 -18.0.00"/>
    </vehicle>
    <vehicle id="117" depart="634.00" departLane="0" departPos="0.00" departSpeed="max">
        <route edges="16.0.00 15.0.00 1.0.00 0.0.00 -10.0.00 4.0.00"/>
    </vehicle>
    <vehicle id="118" depart="637.00" departLane="0" departPos="0.00" departSpeed="max">
        <route edges="-20.0.00 -21.0.00 -7.0.00 7.0.00 21.0.00"/>
    </vehicle>
    <vehicle id="119" depart="644.00" departLane="0" departPos="0.00" departSpeed="max">
        <route edges="16.0.00 15.0.00 14.0.00 13.0.00 23.0.00"/>
    </vehicle>
    <vehicle id="120" depart="655.00" departLane="0" departPos="0.00" departSpeed="max">
        <route edges="-12.0.00 -8.0.00 -9.0.00 -0.0.00 -1.0.00 14.0.00 13.0.00"/>
    </vehicle>
    <vehicle id="121" depart="676.00" departLane="0" departPos="0.00" departSpeed="max">
        <route edges="-14.0.00 1.0.00 0.0.00 -10.0.00 -5.0.00 16.0.00"/>
    </vehicle>
    <vehicle id="122" depart="678.00" departLane="0" departPos="0.00" departSpeed="max">
        <route edges="23.0.00 22.0.00 -12.0.00"/>
    </vehicle>
    <vehicle id="123" depart="681.00" departLane="0" departPos="0.00" departSpeed="max">
        <route edges="-2.0.00 -3.0.00 -20.0.00 -21.0.00 6.0.00 16.0.00 15.0.00 14.0.00 13.0.00"/>
    </vehicle>
    <vehicle id="124" depart="692.00" departLane="0" departPos="0.00" departSpeed="max">
        <route edges="16.0.00 15.0.00 -2.0.00 -3.0.00 -20.0.00 -21.0.00 -7.0.00"/>
    </vehicle>
    <vehicle id="125" depart="697.00" departLane="0" departPos="0.00" departSpeed="max">
        <route edges="-11.0.00 -25.0.00 25.0.00 11.0.00 -5.0.00 16.0.00"/>
    </vehicle>
    <vehicle id="126" depart="702.00" departLane="0" departPos="0.00" departSpeed="max">
        <route edges="16.0.00 15.0.00 1.0.00"/>
    </vehicle>
    <vehicle id="127" depart="709.00" departLane="0" departPos="0.00" departSpeed="max">
        <route edges="12.0.00 -22.0.00 -23.0.00 -13.0.00 -14.0.00 1.0.00"/>
    </vehicle>
    <vehicle id="128" depart="717.00" departLane="0" departPos="0.00" departSpeed="max">
        <route edges="-19.0.00"/>
    </vehicle>
    <vehicle id="129" depart="721.00" departLane="0" departPos="0.00" departSpeed="max">
        <route edges="0.0.00 -10.0.00 4.0.00 -4.0.00 10.0.00 -0.0.00 -1.0.00"/>
    </vehicle>
    <vehicle id="130" depart="738.00" departLane="0" departPos="0.00" departSpeed="max">
        <route edges="-10.0.00 -11.0.00 -25.0.00 25.0.00 11.0.00"/>
    </vehicle>
    <vehicle id="131" depart="739.00" departLane="0" departPos="0.00" departSpeed="max">
        <route edges="11.0.00 -5.0.00 16.0.00 15.0.00 1.0.00 0.0.00 -10.0.00"/>
    </vehicle>
    <vehicle id="132" depart="740.00" departLane="0" departPos="0.00" departSpeed="max">
        <route edges="19.0.00 18.0.00 17.0.00 -17.0.00 -18.0.00 -19.0.00 -20.0.00 -21.0.00 6.0.00 16.0.00 15.0.00"/>
    </vehicle>
    <vehicle id="133" depart="746.00" departLane="0" departPos="0.00" departSpeed="max">
        <route edges="21.0.00 20.0.00 3.0.00 2.0.00 1.0.00 0.0.00"/>
    </vehicle>
    <vehicle id="134" depart="753.00" departLane="0" departPos="0.00" departSpeed="max">
        <route edges="15.0.00 14.0.00 13.0.00 -24.0.00 17.0.00"/>
    </vehicle>
    <vehicle id="135" depart="760.00" departLane="0" departPos="0.00" departSpeed="max">
        <route edges="-12.0.00 -8.0.00 -9.0.00 -0.0.00 -1.0.00 -2.0.00 -3.0.00 19.0.00 18.0.00 24.0.00 -13.0.00 -14.0.00"/>
    </vehicle>
    <vehicle id="136" depart="761.00" departLane="0" departPos="0.00" departSpeed="max">
        <route edges="-3.0.00 19.0.00 18.0.00 24.0.00 -13.0.00 -14.0.00 1.0.00 0.0.00 9.0.00"/>
    </vehicle>
    <vehicle id="137" depart="764.00" departLane="0" departPos="0.00" departSpeed="max">
        <route edges="12.0.00 -22.0.00 -23.0.00 -13.0.00 -14.0.00 1.0.00 0.0.00"/>
    </vehicle>
    <vehicle id="138" depart="764.00" departLane="0" departPos="0.00" departSpeed="max">
        <route edges="-19.0.00 3.0.00 2.0.00 14.0.00 13.0.00 23.0.00 22.0.00 -12.0.00 -8.0.00 -9.0.00 -0.0.00"/>
    </vehicle>
    <vehicle id="139" depart="772.00" departLane="0" departPos="0.00" departSpeed="max">
        <route edges="-13.0.00 -14.0.00 1.0.00 0.0.00 -10.0.00 -11.0.00"/>
    </vehicle>
    <vehicle id="140" depart="774.00" departLane="0" departPos="0.00" departSpeed="max">
        <route edges="23.0.00 22.0.00 -12.0.00 -8.0.00 -9.0.00 -0.0.00 -1.0.00 -2.0.00"/>
    </vehicle>
    <vehicle id="141" depart="785.00" departLane="0" departPos="0.00" departSpeed="max">
        <route edges="-18.0.00 -19.0.00 3.0.00 2.0.00 1.0.00 0.0.00 -10.0.00 -11.0.00 -25.0.00 25.0.00 11.0.00"/>
    </vehicle>
    <vehicle id="142" depart="795.00" departLane="0" departPos="0.00" departSpeed="max">
        <route edges="-13.0.00 -14.0.00 -2.0.00 -3.0.00 19.0.00 18.0.00 24.0.00"/>
    </vehicle>
    <vehicle id="143" depart="802.00" departLane="0" departPos="0.00" departSpeed="max">
        <route edges="19.0.00 18.0.00 17.0.00 -17.0.00 -18.0.00 -19.0.00 -20.0.00 -21.0.00 6.0.00 16.0.00 15.0.00"/>
    </vehicle>
    <vehicle id="144" depart="804.00" departLane="0" departPos="0.00" departSpeed="max">
        <route edges="-4.0.00 -5.0.00 -6.0.00 21.0.00 20.0.00 3.0.00 2.0.00"/>
    </vehicle>
    <vehicle id="145" depart="806.00" departLane="0" departPos="0.00" departSpeed="max">
        <route edges="15.0.00 -2.0.00 -3.0.00 19.0.00 18.0.00 24.0.00"/>
    </vehicle>
    <vehicle id="146" depart="811.00" departLane="0" departPos="0.00" departSpeed="max">
        <route edges="23.0.00"/>
    </vehicle>
    <vehicle id="147" depart="812.00" departLane="0" departPos="0.00" departSpeed="max">
        <route edges="6.0.00"/>
    </vehicle>
    <vehicle id="148" depart="812.00" departLane="0" departPos="0.00" departSpeed="max">
        <route edges="-5.0.00 16.0.00 15.0.00 1.0.00 0.0.00 9.0.00 8.0.00 12.0.00 -22.0.00"/>
    </vehicle>
    <vehicle id="149" depart="813.00" departLane="0" departPos="0.00" departSpeed="max">
        <route edges="-24.0.00 -18.0.00 -19.0.00 3.0.00 2.0.00 1.0.00 0.0.00 -10.0.00 -5.0.00"/>
    </vehicle>
    <vehicle id="150" depart="818.00" departLane="0" departPos="0.00" departSpeed="max">
        <route edges="-10.0.00 -5.0.00 16.0.00 15.0.00 1.0.00"/>
    </vehicle>
    <vehicle id="151" depart="824.00" departLane="0" departPos="0.00" departSpeed="max">
        <route edges="-8.0.00 -9.0.00 -10.0.00 -5.0.00 -6.0.00 21.0.00 20.0.00"/>
    </vehicle>
    <vehicle id="152" depart="829.00" departLane="0" departPos="0.00" departSpeed="max">
        <route edges="-10.0.00 -5.0.00 -6.0.00 21.0.00 20.0.00"/>
    </vehicle>
    <vehicle id="153" depart="838.00" departLane="0" departPos="0.00" departSpeed="max">
        <route edges="14.0.00 13.0.00 23.0.00 22.0.00 -12.0.00 -8.0.00 -9.0.00 -0.0.00 -1.0.00 -2.0.00 -3.0.00"/>
    </vehicle>
    <vehicle id="154" depart="838.00" departLane="0" departPos="0.00" departSpeed="max">
        <route edges="25.0.00 11.0.00 -5.0.00 -6.0.00 21.0.00 20.0.00"/>
    </vehicle>
    <vehicle id="155" depart="858.00" departLane="0" departPos="0.00" departSpeed="max">