<configuration>

<input>
<net-file value="../nets/KAIST_Munji_Campus.net.xml"/>
<route-files value="../routes/KAIST_Munji_Campus.rou.xml"/>
</input>
<time>
<begin value="0"/>
<end value="3600"/>
</time>

</configuration>
