<configuration>

<input>
<net-file value="../nets/VenturaFRW.net.xml"/>
<route-files value="../routes/VenturaFRW.rou.xml"/>
</input>
<time>
<begin value="0"/>
<end value="3600"/>
</time>

</configuration>
