<?xml version="1.0" encoding="UTF-8"?>

<!-- generated on 2021-10-28 12:27:42 by Eclipse SUMO netconvert Version 1.10.0
<configuration xmlns:xsi="http://www.w3.org/2001/XMLSchema-instance" xsi:noNamespaceSchemaLocation="http://sumo.dlr.de/xsd/netconvertConfiguration.xsd">

    <input>
        <opendrive-files value="sumo2morai/sumo/xords/jc_1.xodr"/>
    </input>

    <output>
        <output-file value="sumo2morai/sumo/nets/jc_1.net.xml"/>
    </output>

    <processing>
        <geometry.max-grade.fix value="false"/>
    </processing>

    <tls_building>
        <tls.left-green.time value="0"/>
    </tls_building>

    <junctions>
        <rectangular-lane-cut value="true"/>
    </junctions>

    <report>
        <aggregate-warnings value="5"/>
    </report>

</configuration>
-->

<net version="1.9" junctionCornerDetail="5" rectangularLaneCut="true" limitTurnSpeed="5.50" xmlns:xsi="http://www.w3.org/2001/XMLSchema-instance" xsi:noNamespaceSchemaLocation="http://sumo.dlr.de/xsd/net_file.xsd">

    <location netOffset="1008.69,86.07" convBoundary="0.00,0.00,2003.47,87.47" origBoundary="0.000000,0.000000,0.000000,0.000000" projParameter="+proj=tmerc +lat_0=0 +lon_0=0 +k=1 +x_0=0 +y_0=0 +datum=WGS84 +units=m +geoidgrids=egm96_15.gtx +vunits=m +no_defs "/>

    <type id="bidirectional" priority="1" speed="1.39" disallow="pedestrian tram rail_urban rail rail_electric rail_fast ship" width="3.65"/>
    <type id="border" priority="0" speed="1.39" disallow="all" discard="1" width="0.10"/>
    <type id="driving" priority="1" speed="13.89" disallow="pedestrian tram rail_urban rail rail_electric rail_fast ship" width="3.65"/>
    <type id="entry" priority="1" speed="22.22" disallow="pedestrian tram rail_urban rail rail_electric rail_fast ship" width="3.65"/>
    <type id="exit" priority="1" speed="22.22" disallow="pedestrian tram rail_urban rail rail_electric rail_fast ship" width="3.65"/>
    <type id="median" priority="0" speed="1.39" disallow="all" discard="1" width="0.10"/>
    <type id="mwyEntry" priority="1" speed="22.22" allow="private emergency authority army vip passenger hov taxi bus coach delivery truck trailer motorcycle evehicle custom1 custom2" width="3.65"/>
    <type id="mwyExit" priority="1" speed="22.22" allow="private emergency authority army vip passenger hov taxi bus coach delivery truck trailer motorcycle evehicle custom1 custom2" width="3.65"/>
    <type id="none" priority="0" speed="1.39" disallow="all" discard="1" width="1.00"/>
    <type id="offRamp" priority="1" speed="22.22" allow="private emergency authority army vip passenger hov taxi bus coach delivery truck trailer motorcycle evehicle custom1 custom2" width="3.65"/>
    <type id="onRamp" priority="1" speed="22.22" allow="private emergency authority army vip passenger hov taxi bus coach delivery truck trailer motorcycle evehicle custom1 custom2" width="3.65"/>
    <type id="parking" priority="1" speed="1.39" disallow="pedestrian tram rail_urban rail rail_electric rail_fast ship" width="2.50"/>
    <type id="rail" priority="3" speed="33.33" allow="rail_urban rail rail_electric rail_fast" width="3.65"/>
    <type id="restricted" priority="0" speed="13.89" disallow="all" width="3.65"/>
    <type id="roadWorks" priority="0" speed="1.39" allow="authority" width="3.65"/>
    <type id="shoulder" priority="0" speed="1.39" disallow="all" discard="1" width="1.00"/>
    <type id="special1" priority="1" speed="22.22" allow="custom1" discard="1" width="3.65"/>
    <type id="special2" priority="1" speed="22.22" allow="custom2" discard="1" width="3.65"/>
    <type id="special3" priority="1" speed="22.22" allow="custom1 custom2" discard="1" width="3.65"/>
    <type id="stop" priority="1" speed="13.89" disallow="pedestrian tram rail_urban rail rail_electric rail_fast ship" width="3.65"/>
    <type id="tram" priority="2" speed="13.89" allow="tram" width="3.65"/>

    <edge id=":0.125.58_0" function="internal">
        <lane id=":0.125.58_0_0" index="0" disallow="pedestrian tram rail_urban rail rail_electric rail_fast ship" speed="17.88" length="3.00" width="3.50" shape="437.86,98.32,6.00 434.86,98.32,6.00"/>
        <lane id=":0.125.58_0_1" index="1" disallow="pedestrian tram rail_urban rail rail_electric rail_fast ship" speed="17.88" length="3.00" width="3.50" shape="437.86,94.82,6.00 434.86,94.82,6.00"/>
        <lane id=":0.125.58_0_2" index="2" disallow="pedestrian tram rail_urban rail rail_electric rail_fast ship" speed="17.88" length="3.00" width="3.50" shape="437.86,91.32,6.00 434.86,91.32,6.00"/>
        <lane id=":0.125.58_0_3" index="3" disallow="pedestrian tram rail_urban rail rail_electric rail_fast ship" speed="17.88" length="3.00" width="3.50" shape="437.86,87.82,6.00 434.86,87.82,6.00"/>
    </edge>
    <edge id=":0.125.58_4" function="internal">
        <lane id=":0.125.58_4_0" index="0" allow="emergency authority" speed="17.88" length="3.03" width="1.78" shape="434.86,70.37,6.00 435.77,70.50,6.00 436.36,70.77,6.00 436.96,71.05,6.00 437.86,71.18,6.00"/>
        <lane id=":0.125.58_4_1" index="1" disallow="pedestrian tram rail_urban rail rail_electric rail_fast ship" speed="17.88" length="3.03" width="3.50" shape="434.86,73.82,6.00 437.86,73.82,6.00"/>
        <lane id=":0.125.58_4_2" index="2" disallow="pedestrian tram rail_urban rail rail_electric rail_fast ship" speed="17.88" length="3.03" width="3.50" shape="434.86,77.32,6.00 437.86,77.32,6.00"/>
        <lane id=":0.125.58_4_3" index="3" disallow="pedestrian tram rail_urban rail rail_electric rail_fast ship" speed="17.88" length="3.03" width="3.50" shape="434.86,80.82,6.00 437.86,80.82,6.00"/>
        <lane id=":0.125.58_4_4" index="4" disallow="pedestrian tram rail_urban rail rail_electric rail_fast ship" speed="17.88" length="3.03" width="3.50" shape="434.86,84.32,6.00 437.86,84.32,6.00"/>
    </edge>
    <edge id=":0.1271.51_0" function="internal">
        <lane id=":0.1271.51_0_0" index="0" disallow="pedestrian tram rail_urban rail rail_electric rail_fast ship" speed="17.88" length="8.00" width="3.50" shape="1586.30,98.32,6.00 1578.30,98.32,6.00"/>
        <lane id=":0.1271.51_0_1" index="1" disallow="pedestrian tram rail_urban rail rail_electric rail_fast ship" speed="17.88" length="8.00" width="3.50" shape="1586.30,94.82,6.00 1578.30,94.82,6.00"/>
        <lane id=":0.1271.51_0_2" index="2" disallow="pedestrian tram rail_urban rail rail_electric rail_fast ship" speed="17.88" length="8.00" width="3.50" shape="1586.30,91.32,6.00 1578.30,91.32,6.00"/>
        <lane id=":0.1271.51_0_3" index="3" disallow="pedestrian tram rail_urban rail rail_electric rail_fast ship" speed="17.88" length="8.00" width="3.50" shape="1586.30,87.82,6.00 1578.30,87.82,6.00"/>
    </edge>
    <edge id=":0.1271.51_4" function="internal">
        <lane id=":0.1271.51_4_0" index="0" disallow="pedestrian tram rail_urban rail rail_electric rail_fast ship" speed="17.88" length="8.00" width="3.50" shape="1578.30,73.82,6.00 1586.30,73.82,6.00"/>
        <lane id=":0.1271.51_4_1" index="1" disallow="pedestrian tram rail_urban rail rail_electric rail_fast ship" speed="17.88" length="8.00" width="3.50" shape="1578.30,77.32,6.00 1586.30,77.32,6.00"/>
        <lane id=":0.1271.51_4_2" index="2" disallow="pedestrian tram rail_urban rail rail_electric rail_fast ship" speed="17.88" length="8.00" width="3.50" shape="1578.30,80.82,6.00 1586.30,80.82,6.00"/>
        <lane id=":0.1271.51_4_3" index="3" disallow="pedestrian tram rail_urban rail rail_electric rail_fast ship" speed="17.88" length="8.00" width="3.50" shape="1578.30,84.32,6.00 1586.30,84.32,6.00"/>
    </edge>
    <edge id=":0.1280.78_0" function="internal">
        <lane id=":0.1280.78_0_0" index="0" disallow="pedestrian tram rail_urban rail rail_electric rail_fast ship" speed="17.88" length="3.00" width="3.50" shape="1593.06,98.32,6.00 1590.06,98.32,6.00"/>
        <lane id=":0.1280.78_0_1" index="1" disallow="pedestrian tram rail_urban rail rail_electric rail_fast ship" speed="17.88" length="3.00" width="3.50" shape="1593.06,94.82,6.00 1590.06,94.82,6.00"/>
        <lane id=":0.1280.78_0_2" index="2" disallow="pedestrian tram rail_urban rail rail_electric rail_fast ship" speed="17.88" length="3.00" width="3.50" shape="1593.06,91.32,6.00 1590.06,91.32,6.00"/>
        <lane id=":0.1280.78_0_3" index="3" disallow="pedestrian tram rail_urban rail rail_electric rail_fast ship" speed="17.88" length="3.00" width="3.50" shape="1593.06,87.82,6.00 1590.06,87.82,6.00"/>
    </edge>
    <edge id=":0.1280.78_4" function="internal">
        <lane id=":0.1280.78_4_0" index="0" allow="emergency authority" speed="17.88" length="3.02" width="3.26" shape="1590.06,71.17,6.00 1590.97,71.06,6.00 1591.56,70.80,6.00 1592.16,70.55,6.00 1593.06,70.44,6.00"/>
        <lane id=":0.1280.78_4_1" index="1" disallow="pedestrian tram rail_urban rail rail_electric rail_fast ship" speed="17.88" length="3.02" width="3.50" shape="1590.06,73.82,6.00 1593.06,73.82,6.00"/>
        <lane id=":0.1280.78_4_2" index="2" disallow="pedestrian tram rail_urban rail rail_electric rail_fast ship" speed="17.88" length="3.02" width="3.50" shape="1590.06,77.32,6.00 1593.06,77.32,6.00"/>
        <lane id=":0.1280.78_4_3" index="3" disallow="pedestrian tram rail_urban rail rail_electric rail_fast ship" speed="17.88" length="3.02" width="3.50" shape="1590.06,80.82,6.00 1593.06,80.82,6.00"/>
        <lane id=":0.1280.78_4_4" index="4" disallow="pedestrian tram rail_urban rail rail_electric rail_fast ship" speed="17.88" length="3.02" width="3.50" shape="1590.06,84.32,6.00 1593.06,84.32,6.00"/>
    </edge>
    <edge id=":0.132.22_0" function="internal">
        <lane id=":0.132.22_0_0" index="0" disallow="pedestrian tram rail_urban rail rail_electric rail_fast ship" speed="17.88" length="8.00" width="3.50" shape="447.00,98.32,6.00 439.00,98.32,6.00"/>
        <lane id=":0.132.22_0_1" index="1" disallow="pedestrian tram rail_urban rail rail_electric rail_fast ship" speed="17.88" length="8.00" width="3.50" shape="447.00,94.82,6.00 439.00,94.82,6.00"/>
        <lane id=":0.132.22_0_2" index="2" disallow="pedestrian tram rail_urban rail rail_electric rail_fast ship" speed="17.88" length="8.00" width="3.50" shape="447.00,91.32,6.00 439.00,91.32,6.00"/>
        <lane id=":0.132.22_0_3" index="3" disallow="pedestrian tram rail_urban rail rail_electric rail_fast ship" speed="17.88" length="8.00" width="3.50" shape="447.00,87.82,6.00 439.00,87.82,6.00"/>
    </edge>
    <edge id=":0.132.22_4" function="internal">
        <lane id=":0.132.22_4_0" index="0" disallow="pedestrian tram rail_urban rail rail_electric rail_fast ship" speed="17.88" length="8.00" width="3.50" shape="439.00,73.82,6.00 447.00,73.82,6.00"/>
        <lane id=":0.132.22_4_1" index="1" disallow="pedestrian tram rail_urban rail rail_electric rail_fast ship" speed="17.88" length="8.00" width="3.50" shape="439.00,77.32,6.00 447.00,77.32,6.00"/>
        <lane id=":0.132.22_4_2" index="2" disallow="pedestrian tram rail_urban rail rail_electric rail_fast ship" speed="17.88" length="8.00" width="3.50" shape="439.00,80.82,6.00 447.00,80.82,6.00"/>
        <lane id=":0.132.22_4_3" index="3" disallow="pedestrian tram rail_urban rail rail_electric rail_fast ship" speed="17.88" length="8.00" width="3.50" shape="439.00,84.32,6.00 447.00,84.32,6.00"/>
    </edge>
    <edge id=":0.6.66_0" function="internal">
        <lane id=":0.6.66_0_0" index="0" disallow="pedestrian tram rail_urban rail rail_electric rail_fast ship" speed="17.88" length="3.00" width="3.50" shape="318.95,98.32,6.00 315.95,98.32,6.00"/>
        <lane id=":0.6.66_0_1" index="1" disallow="pedestrian tram rail_urban rail rail_electric rail_fast ship" speed="17.88" length="3.00" width="3.50" shape="318.95,94.82,6.00 315.95,94.82,6.00"/>
        <lane id=":0.6.66_0_2" index="2" disallow="pedestrian tram rail_urban rail rail_electric rail_fast ship" speed="17.88" length="3.00" width="3.50" shape="318.95,91.32,6.00 315.95,91.32,6.00"/>
        <lane id=":0.6.66_0_3" index="3" disallow="pedestrian tram rail_urban rail rail_electric rail_fast ship" speed="17.88" length="3.00" width="3.50" shape="318.95,87.82,6.00 315.95,87.82,6.00"/>
    </edge>
    <edge id=":0.6.66_4" function="internal">
        <lane id=":0.6.66_4_0" index="0" disallow="pedestrian tram rail_urban rail rail_electric rail_fast ship" speed="17.88" length="3.00" width="3.40" shape="315.95,70.37,6.00 318.95,70.37,6.00"/>
        <lane id=":0.6.66_4_1" index="1" disallow="pedestrian tram rail_urban rail rail_electric rail_fast ship" speed="17.88" length="3.00" width="3.50" shape="315.95,73.82,6.00 318.95,73.82,6.00"/>
        <lane id=":0.6.66_4_2" index="2" disallow="pedestrian tram rail_urban rail rail_electric rail_fast ship" speed="17.88" length="3.00" width="3.50" shape="315.95,77.32,6.00 318.95,77.32,6.00"/>
        <lane id=":0.6.66_4_3" index="3" disallow="pedestrian tram rail_urban rail rail_electric rail_fast ship" speed="17.88" length="3.00" width="3.50" shape="315.95,80.82,6.00 318.95,80.82,6.00"/>
        <lane id=":0.6.66_4_4" index="4" disallow="pedestrian tram rail_urban rail rail_electric rail_fast ship" speed="17.88" length="3.00" width="3.50" shape="315.95,84.32,6.00 318.95,84.32,6.00"/>
    </edge>
    <edge id=":12.11.09_0" function="internal">
        <lane id=":12.11.09_0_0" index="0" disallow="pedestrian tram rail_urban rail rail_electric rail_fast ship" speed="17.88" length="4.81" width="3.50" shape="1772.91,98.32,6.00 1777.72,98.32,6.00"/>
        <lane id=":12.11.09_0_1" index="1" disallow="pedestrian tram rail_urban rail rail_electric rail_fast ship" speed="17.88" length="4.81" width="3.50" shape="1772.91,94.82,6.00 1777.72,94.82,6.00"/>
        <lane id=":12.11.09_0_2" index="2" disallow="pedestrian tram rail_urban rail rail_electric rail_fast ship" speed="17.88" length="4.81" width="3.50" shape="1772.91,91.32,6.00 1777.72,91.32,6.00"/>
        <lane id=":12.11.09_0_3" index="3" disallow="pedestrian tram rail_urban rail rail_electric rail_fast ship" speed="17.88" length="4.81" width="3.50" shape="1772.91,87.82,6.00 1777.72,87.82,6.00"/>
    </edge>
    <edge id=":12.11.09_4" function="internal">
        <lane id=":12.11.09_4_0" index="0" disallow="pedestrian tram rail_urban rail rail_electric rail_fast ship" speed="17.88" length="4.81" width="3.50" shape="1777.72,77.32,6.00 1772.91,77.32,6.00"/>
        <lane id=":12.11.09_4_1" index="1" disallow="pedestrian tram rail_urban rail rail_electric rail_fast ship" speed="17.88" length="4.81" width="3.50" shape="1777.72,80.82,6.00 1772.91,80.82,6.00"/>
        <lane id=":12.11.09_4_2" index="2" disallow="pedestrian tram rail_urban rail rail_electric rail_fast ship" speed="17.88" length="4.81" width="3.50" shape="1777.72,84.32,6.00 1772.91,84.32,6.00"/>
    </edge>
    <edge id=":12.39.27_0" function="internal">
        <lane id=":12.39.27_0_0" index="0" disallow="pedestrian tram rail_urban rail rail_electric rail_fast ship" speed="17.88" length="0.10" width="3.50" shape="1801.09,98.32,6.00 1801.09,98.32,6.00"/>
        <lane id=":12.39.27_0_1" index="1" disallow="pedestrian tram rail_urban rail rail_electric rail_fast ship" speed="17.88" length="0.10" width="3.50" shape="1801.09,94.82,6.00 1801.09,94.82,6.00"/>
        <lane id=":12.39.27_0_2" index="2" disallow="pedestrian tram rail_urban rail rail_electric rail_fast ship" speed="17.88" length="0.10" width="3.50" shape="1801.09,91.32,6.00 1801.09,91.32,6.00"/>
        <lane id=":12.39.27_0_3" index="3" disallow="pedestrian tram rail_urban rail rail_electric rail_fast ship" speed="17.88" length="0.10" width="3.50" shape="1801.09,87.82,6.00 1801.09,87.82,6.00"/>
    </edge>
    <edge id=":12.39.27_4" function="internal">
        <lane id=":12.39.27_4_0" index="0" disallow="pedestrian tram rail_urban rail rail_electric rail_fast ship" speed="17.88" length="0.10" width="3.50" shape="1801.09,77.32,6.00 1801.09,77.32,6.00"/>
        <lane id=":12.39.27_4_1" index="1" disallow="pedestrian tram rail_urban rail rail_electric rail_fast ship" speed="17.88" length="0.10" width="3.50" shape="1801.09,80.82,6.00 1801.09,80.82,6.00"/>
        <lane id=":12.39.27_4_2" index="2" disallow="pedestrian tram rail_urban rail rail_electric rail_fast ship" speed="17.88" length="0.10" width="3.50" shape="1801.09,84.32,6.00 1801.09,84.32,6.00"/>
    </edge>
    <edge id=":12.end_0" function="internal">
        <lane id=":12.end_0_0" index="0" disallow="pedestrian tram rail_urban rail rail_electric rail_fast ship" speed="3.82" length="5.11" width="3.50" shape="2003.47,84.49,6.00 2004.78,85.37,6.00 2005.22,86.24,6.00 2004.78,87.12,6.00 2003.46,87.99,6.00"/>
    </edge>
    <edge id=":17.22.67_0" function="internal">
        <lane id=":17.22.67_0_0" index="0" disallow="pedestrian tram rail_urban rail rail_electric rail_fast ship" speed="17.88" length="0.10" width="3.41" shape="257.56,64.97,6.00 257.56,64.97,6.00"/>
        <lane id=":17.22.67_0_1" index="1" disallow="pedestrian tram rail_urban rail rail_electric rail_fast ship" speed="17.88" length="0.10" width="3.50" shape="256.67,68.31,6.00 256.67,68.31,6.00"/>
    </edge>
    <edge id=":17.44.04_0" function="internal">
        <lane id=":17.44.04_0_0" index="0" disallow="pedestrian tram rail_urban rail rail_electric rail_fast ship" speed="17.88" length="0.10" width="3.41" shape="236.74,59.47,5.88 236.74,59.47,5.88"/>
        <lane id=":17.44.04_0_1" index="1" disallow="pedestrian tram rail_urban rail rail_electric rail_fast ship" speed="17.88" length="0.10" width="3.50" shape="235.86,62.81,5.88 235.86,62.81,5.88"/>
    </edge>
    <edge id=":17.7.63_0" function="internal">
        <lane id=":17.7.63_0_0" index="0" disallow="pedestrian tram rail_urban rail rail_electric rail_fast ship" speed="17.88" length="4.06" width="3.41" shape="267.25,67.54,6.00 268.37,67.50,6.00 269.12,66.99,6.00 269.87,66.47,6.00 270.99,66.41,6.00"/>
        <lane id=":17.7.63_0_1" index="1" disallow="pedestrian tram rail_urban rail rail_electric rail_fast ship" speed="17.88" length="4.13" width="3.50" shape="266.39,70.88,6.00 267.52,70.85,6.00 268.29,70.34,6.00 269.06,69.82,6.00 270.20,69.77,6.00"/>
    </edge>
    <edge id=":23.14.90_0" function="internal">
        <lane id=":23.14.90_0_0" index="0" disallow="pedestrian tram rail_urban rail rail_electric rail_fast ship" speed="17.88" length="1.43" width="3.26" shape="1780.41,69.27,5.29 1780.41,69.27,5.29"/>
        <lane id=":23.14.90_0_1" index="1" disallow="pedestrian tram rail_urban rail rail_electric rail_fast ship" speed="4.72" length="1.43" width="3.50" shape="1777.56,71.09,5.29 1778.06,71.43,5.24 1778.72,71.35,5.19 1779.46,71.08,5.13 1780.22,70.86,5.06"/>
    </edge>
    <edge id=":26_0" function="internal">
        <lane id=":26_0_0" index="0" disallow="pedestrian tram rail_urban rail rail_electric rail_fast ship" speed="17.88" length="70.94" width="3.50" shape="1777.52,98.32,6.00 1706.59,98.32,6.00"/>
        <lane id=":26_0_1" index="1" disallow="pedestrian tram rail_urban rail rail_electric rail_fast ship" speed="17.88" length="70.94" width="3.50" shape="1777.52,94.82,6.00 1706.59,94.82,6.00"/>
        <lane id=":26_0_2" index="2" disallow="pedestrian tram rail_urban rail rail_electric rail_fast ship" speed="17.88" length="70.94" width="3.50" shape="1777.52,91.32,6.00 1706.59,91.32,6.00"/>
        <lane id=":26_0_3" index="3" disallow="pedestrian tram rail_urban rail rail_electric rail_fast ship" speed="17.88" length="70.94" width="3.50" shape="1777.52,87.82,6.00 1706.59,87.82,6.00"/>
    </edge>
    <edge id=":26_4" function="internal">
        <lane id=":26_4_0" index="0" disallow="pedestrian tram rail_urban rail rail_electric rail_fast ship" speed="13.30" length="78.65" width="3.26" shape="1706.59,70.44,6.00 1735.26,70.80,5.97 1757.86,71.88,5.95 1774.37,73.67,5.94 1784.81,76.19,5.93"/>
        <lane id=":26_4_1" index="1" disallow="pedestrian tram rail_urban rail rail_electric rail_fast ship" speed="13.03" length="75.63" width="3.50" shape="1706.59,73.82,6.00 1735.36,74.08,5.97 1757.51,74.87,5.95 1773.05,76.17,5.94 1781.96,78.01,5.93"/>
    </edge>
    <edge id=":26_6" function="internal">
        <lane id=":26_6_0" index="0" disallow="pedestrian tram rail_urban rail rail_electric rail_fast ship" speed="17.88" length="70.94" width="3.50" shape="1706.59,77.32,6.00 1777.52,77.32,6.00"/>
        <lane id=":26_6_1" index="1" disallow="pedestrian tram rail_urban rail rail_electric rail_fast ship" speed="17.88" length="70.94" width="3.50" shape="1706.59,80.82,6.00 1777.52,80.82,6.00"/>
        <lane id=":26_6_2" index="2" disallow="pedestrian tram rail_urban rail rail_electric rail_fast ship" speed="17.88" length="70.94" width="3.50" shape="1706.59,84.32,6.00 1777.52,84.32,6.00"/>
    </edge>
    <edge id=":43_0" function="internal">
        <lane id=":43_0_0" index="0" disallow="pedestrian tram rail_urban rail rail_electric rail_fast ship" speed="17.88" length="33.70" width="3.50" shape="310.79,98.32,6.00 277.08,98.32,6.00"/>
        <lane id=":43_0_1" index="1" disallow="pedestrian tram rail_urban rail rail_electric rail_fast ship" speed="17.88" length="33.70" width="3.50" shape="310.79,94.82,6.00 277.08,94.82,6.00"/>
        <lane id=":43_0_2" index="2" disallow="pedestrian tram rail_urban rail rail_electric rail_fast ship" speed="17.88" length="33.70" width="3.50" shape="310.79,91.32,6.00 277.08,91.32,6.00"/>
        <lane id=":43_0_3" index="3" disallow="pedestrian tram rail_urban rail rail_electric rail_fast ship" speed="17.88" length="33.70" width="3.50" shape="310.79,87.82,6.00 277.08,87.82,6.00"/>
    </edge>
    <edge id=":43_4" function="internal">
        <lane id=":43_4_0" index="0" disallow="pedestrian tram rail_urban rail rail_electric rail_fast ship" speed="17.88" length="32.99" width="3.41" shape="278.28,67.98,6.00 285.21,69.17,6.00 292.10,69.90,6.00 300.21,70.27,6.00 310.79,70.37,6.00"/>
        <lane id=":43_4_1" index="1" disallow="pedestrian tram rail_urban rail rail_electric rail_fast ship" speed="17.88" length="32.99" width="3.50" shape="277.61,71.37,6.00 284.59,72.57,6.00 291.64,73.32,6.00 299.96,73.71,6.00 310.79,73.82,6.00"/>
    </edge>
    <edge id=":43_6" function="internal">
        <lane id=":43_6_0" index="0" disallow="pedestrian tram rail_urban rail rail_electric rail_fast ship" speed="17.88" length="33.70" width="3.50" shape="277.08,77.32,6.00 310.79,77.32,6.00"/>
        <lane id=":43_6_1" index="1" disallow="pedestrian tram rail_urban rail rail_electric rail_fast ship" speed="17.88" length="33.70" width="3.50" shape="277.08,80.82,6.00 310.79,80.82,6.00"/>
        <lane id=":43_6_2" index="2" disallow="pedestrian tram rail_urban rail rail_electric rail_fast ship" speed="17.88" length="33.70" width="3.50" shape="277.08,84.32,6.00 310.79,84.32,6.00"/>
    </edge>
    <edge id=":6.25.46_0" function="internal">
        <lane id=":6.25.46_0_0" index="0" disallow="pedestrian tram rail_urban rail rail_electric rail_fast ship" speed="17.88" length="0.10" width="3.50" shape="251.63,98.32,6.00 251.63,98.32,6.00"/>
        <lane id=":6.25.46_0_1" index="1" disallow="pedestrian tram rail_urban rail rail_electric rail_fast ship" speed="17.88" length="0.10" width="3.50" shape="251.63,94.82,6.00 251.63,94.82,6.00"/>
        <lane id=":6.25.46_0_2" index="2" disallow="pedestrian tram rail_urban rail rail_electric rail_fast ship" speed="17.88" length="0.10" width="3.50" shape="251.63,91.32,6.00 251.63,91.32,6.00"/>
        <lane id=":6.25.46_0_3" index="3" disallow="pedestrian tram rail_urban rail rail_electric rail_fast ship" speed="17.88" length="0.10" width="3.50" shape="251.63,87.82,6.00 251.63,87.82,6.00"/>
    </edge>
    <edge id=":6.25.46_4" function="internal">
        <lane id=":6.25.46_4_0" index="0" disallow="pedestrian tram rail_urban rail rail_electric rail_fast ship" speed="17.88" length="0.10" width="3.50" shape="251.63,77.32,6.00 251.63,77.32,6.00"/>
        <lane id=":6.25.46_4_1" index="1" disallow="pedestrian tram rail_urban rail rail_electric rail_fast ship" speed="17.88" length="0.10" width="3.50" shape="251.63,80.82,6.00 251.63,80.82,6.00"/>
        <lane id=":6.25.46_4_2" index="2" disallow="pedestrian tram rail_urban rail rail_electric rail_fast ship" speed="17.88" length="0.10" width="3.50" shape="251.63,84.32,6.00 251.63,84.32,6.00"/>
    </edge>
    <edge id=":6.45.55_0" function="internal">
        <lane id=":6.45.55_0_0" index="0" disallow="pedestrian tram rail_urban rail rail_electric rail_fast ship" speed="17.88" length="0.10" width="3.50" shape="231.53,98.32,6.00 231.53,98.32,6.00"/>
        <lane id=":6.45.55_0_1" index="1" disallow="pedestrian tram rail_urban rail rail_electric rail_fast ship" speed="17.88" length="0.10" width="3.50" shape="231.53,94.82,6.00 231.53,94.82,6.00"/>
        <lane id=":6.45.55_0_2" index="2" disallow="pedestrian tram rail_urban rail rail_electric rail_fast ship" speed="17.88" length="0.10" width="3.50" shape="231.53,91.32,6.00 231.53,91.32,6.00"/>
        <lane id=":6.45.55_0_3" index="3" disallow="pedestrian tram rail_urban rail rail_electric rail_fast ship" speed="17.88" length="0.10" width="3.50" shape="231.53,87.82,6.00 231.53,87.82,6.00"/>
    </edge>
    <edge id=":6.45.55_4" function="internal">
        <lane id=":6.45.55_4_0" index="0" disallow="pedestrian tram rail_urban rail rail_electric rail_fast ship" speed="17.88" length="0.10" width="3.50" shape="231.53,77.32,6.00 231.53,77.32,6.00"/>
        <lane id=":6.45.55_4_1" index="1" disallow="pedestrian tram rail_urban rail rail_electric rail_fast ship" speed="17.88" length="0.10" width="3.50" shape="231.53,80.82,6.00 231.53,80.82,6.00"/>
        <lane id=":6.45.55_4_2" index="2" disallow="pedestrian tram rail_urban rail rail_electric rail_fast ship" speed="17.88" length="0.10" width="3.50" shape="231.53,84.32,6.00 231.53,84.32,6.00"/>
    </edge>
    <edge id=":6.end_0" function="internal">
        <lane id=":6.end_0_0" index="0" disallow="pedestrian tram rail_urban rail rail_electric rail_fast ship" speed="3.82" length="5.11" width="3.50" shape="13.27,89.22,6.00 11.95,88.36,6.00 11.51,87.49,6.00 11.93,86.61,6.00 13.24,85.72,6.00"/>
    </edge>

    <edge id="-0.0.00" from="43" to="0.6.66" priority="1" type="driving" shape="310.79,86.07,6.00 312.78,86.07,6.00 313.93,86.07,6.00 314.78,86.07,6.00 316.78,86.07,6.00 317.45,86.07,6.00">
        <lane id="-0.0.00_0" index="0" disallow="pedestrian tram rail_urban rail rail_electric rail_fast ship" speed="17.88" length="5.16" width="3.41" shape="310.79,70.37,6.00 312.78,70.37,6.00 313.93,70.37,6.00 314.78,70.37,6.00 315.95,70.37,6.00" type="driving"/>
        <lane id="-0.0.00_1" index="1" disallow="pedestrian tram rail_urban rail rail_electric rail_fast ship" speed="17.88" length="5.16" width="3.50" shape="310.79,73.82,6.00 312.78,73.82,6.00 313.93,73.82,6.00 314.78,73.82,6.00 315.95,73.82,6.00" type="driving"/>
        <lane id="-0.0.00_2" index="2" disallow="pedestrian tram rail_urban rail rail_electric rail_fast ship" speed="17.88" length="5.16" width="3.50" shape="310.79,77.32,6.00 312.78,77.32,6.00 313.93,77.32,6.00 314.78,77.32,6.00 315.95,77.32,6.00" type="driving"/>
        <lane id="-0.0.00_3" index="3" disallow="pedestrian tram rail_urban rail rail_electric rail_fast ship" speed="17.88" length="5.16" width="3.50" shape="310.79,80.82,6.00 312.78,80.82,6.00 313.93,80.82,6.00 314.78,80.82,6.00 315.95,80.82,6.00" type="driving"/>
        <lane id="-0.0.00_4" index="4" disallow="pedestrian tram rail_urban rail rail_electric rail_fast ship" speed="17.88" length="5.16" width="3.50" shape="310.79,84.32,6.00 312.78,84.32,6.00 313.93,84.32,6.00 314.78,84.32,6.00 315.95,84.32,6.00" type="driving"/>
    </edge>
    <edge id="-0.125.58" from="0.125.58" to="0.132.22" priority="1" type="driving" shape="436.36,86.07,6.00 436.77,86.07,6.00 438.77,86.07,6.00 440.77,86.07,6.00 442.77,86.07,6.00 443.00,86.07,6.00">
        <lane id="-0.125.58_0" index="0" allow="emergency authority" speed="17.88" length="1.14" width="1.78" shape="437.86,71.18,6.00 438.77,71.18,6.00 439.00,71.18,6.00" type="driving"/>
        <lane id="-0.125.58_1" index="1" disallow="pedestrian tram rail_urban rail rail_electric rail_fast ship" speed="17.88" length="1.14" width="3.50" shape="437.86,73.82,6.00 438.77,73.82,6.00 439.00,73.82,6.00" type="driving"/>
        <lane id="-0.125.58_2" index="2" disallow="pedestrian tram rail_urban rail rail_electric rail_fast ship" speed="17.88" length="1.14" width="3.50" shape="437.86,77.32,6.00 438.77,77.32,6.00 439.00,77.32,6.00" type="driving"/>
        <lane id="-0.125.58_3" index="3" disallow="pedestrian tram rail_urban rail rail_electric rail_fast ship" speed="17.88" length="1.14" width="3.50" shape="437.86,80.82,6.00 438.77,80.82,6.00 439.00,80.82,6.00" type="driving"/>
        <lane id="-0.125.58_4" index="4" disallow="pedestrian tram rail_urban rail rail_electric rail_fast ship" speed="17.88" length="1.14" width="3.50" shape="437.86,84.32,6.00 438.77,84.32,6.00 439.00,84.32,6.00" type="driving"/>
    </edge>
    <edge id="-0.1271.51" from="0.1271.51" to="0.1280.78" priority="1" type="driving" shape="1582.30,86.07,6.00 1582.60,86.07,6.00 1584.60,86.07,6.00 1586.60,86.07,6.00 1588.60,86.07,6.00 1590.60,86.07,6.00 1591.56,86.07,6.00">
        <lane id="-0.1271.51_0" index="0" allow="emergency authority" speed="17.88" length="3.76" width="1.80" shape="1586.30,71.17,6.00 1586.60,71.17,6.00 1588.60,71.17,6.00 1590.06,71.17,6.00" type="driving"/>
        <lane id="-0.1271.51_1" index="1" disallow="pedestrian tram rail_urban rail rail_electric rail_fast ship" speed="17.88" length="3.76" width="3.50" shape="1586.30,73.82,6.00 1586.60,73.82,6.00 1588.60,73.82,6.00 1590.06,73.82,6.00" type="driving"/>
        <lane id="-0.1271.51_2" index="2" disallow="pedestrian tram rail_urban rail rail_electric rail_fast ship" speed="17.88" length="3.76" width="3.50" shape="1586.30,77.32,6.00 1586.60,77.32,6.00 1588.60,77.32,6.00 1590.06,77.32,6.00" type="driving"/>