<?xml version="1.0" encoding="UTF-8"?>

<!-- generated on 2021-10-28 09:19:24 by Eclipse SUMO netconvert Version 1.10.0
<configuration xmlns:xsi="http://www.w3.org/2001/XMLSchema-instance" xsi:noNamespaceSchemaLocation="http://sumo.dlr.de/xsd/netconvertConfiguration.xsd">

    <input>
        <opendrive-files value="sumo2morai/sumo/xords/KAIST_Munji_Campus.xodr"/>
    </input>

    <output>
        <output-file value="sumo2morai/sumo/nets/KAIST_Munji_Campus.net.xml"/>
    </output>

    <processing>
        <geometry.max-grade.fix value="false"/>
    </processing>

    <tls_building>
        <tls.left-green.time value="0"/>
    </tls_building>

    <junctions>
        <rectangular-lane-cut value="true"/>
    </junctions>

    <report>
        <aggregate-warnings value="5"/>
    </report>

</configuration>
-->

<net version="1.9" junctionCornerDetail="5" rectangularLaneCut="true" limitTurnSpeed="5.50" xmlns:xsi="http://www.w3.org/2001/XMLSchema-instance" xsi:noNamespaceSchemaLocation="http://sumo.dlr.de/xsd/net_file.xsd">

    <location netOffset="143.05,-35.08" convBoundary="0.00,0.00,160.89,174.49" origBoundary="0.000000,0.000000,0.000000,0.000000" projParameter="+proj=tmerc +lat_0=36.391907937 +lon_0=127.3993132035 +k=1 +x_0=0 +y_0=0 +datum=WGS84 +units=m +geoidgrids=egm96_15.gtx +vunits=m +no_defs "/>

    <type id="bidirectional" priority="1" speed="1.39" disallow="pedestrian tram rail_urban rail rail_electric rail_fast ship" width="3.65"/>
    <type id="border" priority="0" speed="1.39" disallow="all" discard="1" width="0.10"/>
    <type id="driving" priority="1" speed="13.89" disallow="pedestrian tram rail_urban rail rail_electric rail_fast ship" width="3.65"/>
    <type id="entry" priority="1" speed="22.22" disallow="pedestrian tram rail_urban rail rail_electric rail_fast ship" width="3.65"/>
    <type id="exit" priority="1" speed="22.22" disallow="pedestrian tram rail_urban rail rail_electric rail_fast ship" width="3.65"/>
    <type id="median" priority="0" speed="1.39" disallow="all" discard="1" width="0.10"/>
    <type id="mwyEntry" priority="1" speed="22.22" allow="private emergency authority army vip passenger hov taxi bus coach delivery truck trailer motorcycle evehicle custom1 custom2" width="3.65"/>
    <type id="mwyExit" priority="1" speed="22.22" allow="private emergency authority army vip passenger hov taxi bus coach delivery truck trailer motorcycle evehicle custom1 custom2" width="3.65"/>
    <type id="none" priority="0" speed="1.39" disallow="all" discard="1" width="1.00"/>
    <type id="offRamp" priority="1" speed="22.22" allow="private emergency authority army vip passenger hov taxi bus coach delivery truck trailer motorcycle evehicle custom1 custom2" width="3.65"/>
    <type id="onRamp" priority="1" speed="22.22" allow="private emergency authority army vip passenger hov taxi bus coach delivery truck trailer motorcycle evehicle custom1 custom2" width="3.65"/>
    <type id="parking" priority="1" speed="1.39" disallow="pedestrian tram rail_urban rail rail_electric rail_fast ship" width="2.50"/>
    <type id="rail" priority="3" speed="33.33" allow="rail_urban rail rail_electric rail_fast" width="3.65"/>
    <type id="restricted" priority="0" speed="13.89" disallow="all" width="3.65"/>
    <type id="roadWorks" priority="0" speed="1.39" allow="authority" width="3.65"/>
    <type id="shoulder" priority="0" speed="1.39" disallow="all" discard="1" width="1.00"/>
    <type id="special1" priority="1" speed="22.22" allow="custom1" discard="1" width="3.65"/>
    <type id="special2" priority="1" speed="22.22" allow="custom2" discard="1" width="3.65"/>
    <type id="special3" priority="1" speed="22.22" allow="custom1 custom2" discard="1" width="3.65"/>
    <type id="stop" priority="1" speed="13.89" disallow="pedestrian tram rail_urban rail rail_electric rail_fast ship" width="3.65"/>
    <type id="tram" priority="2" speed="13.89" allow="tram" width="3.65"/>

    <edge id=":2.1_0" function="internal">
        <lane id=":2.1_0_0" index="0" disallow="pedestrian tram rail_urban rail rail_electric rail_fast ship" speed="8.33" length="0.35" width="3.50" shape="91.28,171.53,50.21 91.07,171.26,50.22"/>
    </edge>
    <edge id=":2.1_1" function="internal">
        <lane id=":2.1_1_0" index="0" disallow="pedestrian tram rail_urban rail rail_electric rail_fast ship" speed="8.33" length="0.35" width="3.50" shape="93.82,169.10,50.22 93.88,169.18,50.21 93.92,169.24,50.21 93.97,169.29,50.21 94.04,169.37,50.20"/>
    </edge>
    <edge id=":4.end_0" function="internal">
        <lane id=":4.end_0_0" index="0" disallow="pedestrian tram rail_urban rail rail_electric rail_fast ship" speed="3.78" length="4.98" width="3.31" shape="-0.00,32.68,49.71 -1.28,31.82,49.71 -1.70,30.97,49.71 -1.28,30.12,49.71 0.00,29.27,49.71"/>
    </edge>
    <edge id=":5.2_0" function="internal">
        <lane id=":5.2_0_0" index="0" disallow="pedestrian tram rail_urban rail rail_electric rail_fast ship" speed="8.33" length="0.36" width="3.08" shape="44.34,111.82,50.68 44.69,111.92,50.68"/>
    </edge>
    <edge id=":5.2_1" function="internal">
        <lane id=":5.2_1_0" index="0" disallow="pedestrian tram rail_urban rail rail_electric rail_fast ship" speed="8.33" length="0.30" width="3.50" shape="47.25,109.91,50.68 47.09,109.66,50.68"/>
    </edge>
    <edge id=":5.3_0" function="internal">
        <lane id=":5.3_0_0" index="0" disallow="pedestrian tram rail_urban rail rail_electric rail_fast ship" speed="8.33" length="0.36" width="3.08" shape="39.28,101.52,50.55 39.27,101.16,50.54"/>
    </edge>
    <edge id=":5.3_1" function="internal">
        <lane id=":5.3_1_0" index="0" disallow="pedestrian tram rail_urban rail rail_electric rail_fast ship" speed="8.33" length="0.37" width="3.43" shape="42.53,101.16,50.54 42.52,101.27,50.55 42.52,101.34,50.55 42.52,101.41,50.55 42.54,101.52,50.56"/>
    </edge>
    <edge id=":6.end_0" function="internal">
        <lane id=":6.end_0_0" index="0" disallow="pedestrian tram rail_urban rail rail_electric rail_fast ship" speed="3.73" length="4.93" width="3.50" shape="124.26,31.47,46.86 125.54,32.30,46.86 125.97,33.14,46.86 125.55,33.99,46.86 124.29,34.85,46.86"/>
    </edge>
    <edge id=":7.1_0" function="internal">
        <lane id=":7.1_0_0" index="0" disallow="pedestrian tram rail_urban rail rail_electric rail_fast ship" speed="8.33" length="0.10" width="3.50" shape="102.34,176.23,49.77 102.34,176.23,49.77"/>
    </edge>
    <edge id=":7.1_1" function="internal">
        <lane id=":7.1_1_0" index="0" disallow="pedestrian tram rail_urban rail rail_electric rail_fast ship" speed="8.33" length="0.10" width="3.50" shape="102.33,172.73,49.77 102.33,172.73,49.77"/>
    </edge>
    <edge id=":7.end_0" function="internal">
        <lane id=":7.end_0_0" index="0" disallow="pedestrian tram rail_urban rail rail_electric rail_fast ship" speed="3.82" length="5.11" width="3.50" shape="160.89,172.56,47.18 162.20,173.43,47.18 162.64,174.30,47.18 162.21,175.18,47.18 160.90,176.06,47.18"/>
    </edge>
    <edge id=":8_0" function="internal">
        <lane id=":8_0_0" index="0" disallow="pedestrian tram rail_urban rail rail_electric rail_fast ship" speed="8.33" length="16.49" width="3.50" shape="39.30,45.11,48.90 38.81,39.71,48.89 37.33,35.85,48.88 34.86,33.53,48.87 31.41,32.75,48.87"/>
    </edge>
    <edge id=":8_1" function="internal">
        <lane id=":8_1_0" index="0" disallow="pedestrian tram rail_urban rail rail_electric rail_fast ship" speed="8.33" length="27.25" width="4.34" shape="39.30,45.11,48.90 41.66,40.20,48.78 46.83,33.88,48.60 52.01,27.56,48.43 54.36,22.64,48.31"/>
    </edge>
    <edge id=":8_2" function="internal">
        <lane id=":8_2_0" index="0" disallow="pedestrian tram rail_urban rail rail_electric rail_fast ship" speed="8.33" length="28.29" width="3.26" shape="39.30,45.11,48.90 40.65,39.42,48.75 44.70,35.34,48.60 51.45,32.85,48.42 60.90,31.96,48.18"/>
    </edge>
    <edge id=":8_3" function="internal">
        <lane id=":8_3_0" index="0" disallow="pedestrian tram rail_urban rail rail_electric rail_fast ship" speed="8.33" length="23.07" width="3.43" shape="60.92,35.34,48.18 52.89,36.01,48.43 47.15,37.86,48.62 43.70,40.89,48.76 42.55,45.11,48.90"/>
    </edge>
    <edge id=":8_4" function="internal">
        <lane id=":8_4_0" index="0" disallow="pedestrian tram rail_urban rail rail_electric rail_fast ship" speed="8.33" length="29.64" width="3.50" shape="60.92,35.34,48.18 54.91,34.96,48.32 46.17,34.07,48.53 37.42,33.17,48.73 31.41,32.75,48.87"/>
    </edge>
    <edge id=":8_5" function="internal">
        <lane id=":8_5_0" index="0" disallow="pedestrian tram rail_urban rail rail_electric rail_fast ship" speed="8.33" length="4.71" width="4.34" shape="60.92,35.34,48.18 58.06,34.57,48.21 56.92,33.25,48.22"/>
    </edge>
    <edge id=":8_9" function="internal">
        <lane id=":8_9_0" index="0" disallow="pedestrian tram rail_urban rail rail_electric rail_fast ship" speed="8.33" length="11.14" width="4.34" shape="56.92,33.25,48.22 56.01,32.19,48.23 54.78,28.22,48.27 54.36,22.64,48.31"/>
    </edge>
    <edge id=":8_6" function="internal">
        <lane id=":8_6_0" index="0" disallow="pedestrian tram rail_urban rail rail_electric rail_fast ship" speed="8.33" length="25.41" width="4.34" shape="31.41,29.35,48.87 41.46,28.95,48.65 48.63,27.70,48.49 52.93,25.60,48.38 54.36,22.64,48.31"/>
    </edge>
    <edge id=":8_7" function="internal">
        <lane id=":8_7_0" index="0" disallow="pedestrian tram rail_urban rail rail_electric rail_fast ship" speed="8.33" length="29.61" width="3.26" shape="31.41,29.35,48.87 60.90,31.96,48.18"/>
    </edge>
    <edge id=":8_8" function="internal">
        <lane id=":8_8_0" index="0" disallow="pedestrian tram rail_urban rail rail_electric rail_fast ship" speed="8.33" length="6.65" width="3.43" shape="31.41,29.35,48.87 36.29,30.34,48.87 37.56,31.42,48.88"/>
    </edge>
    <edge id=":8_10" function="internal">
        <lane id=":8_10_0" index="0" disallow="pedestrian tram rail_urban rail rail_electric rail_fast ship" speed="8.33" length="15.17" width="3.43" shape="37.56,31.42,48.88 39.77,33.30,48.88 41.86,38.23,48.89 42.55,45.11,48.90"/>
    </edge>

    <edge id="-0.0.00" from="8" to="0.end" priority="1" type="driving" shape="56.53,22.64,48.31 56.53,20.75,48.29 56.53,18.87,48.26 56.53,16.98,48.24 56.53,15.09,48.22 56.52,13.21,48.20 56.52,11.32,48.18 56.52,9.43,48.16 56.52,7.55,48.14 56.51,5.66,48.12 56.51,3.77,48.11 56.51,1.89,48.09 56.51,0.00,48.07">
        <lane id="-0.0.00_0" index="0" disallow="pedestrian tram rail_urban rail rail_electric rail_fast ship" speed="8.33" length="22.64" width="4.34" shape="54.36,22.64,48.31 54.36,20.76,48.29 54.36,18.87,48.26 54.36,16.98,48.24 54.35,15.10,48.22 54.35,13.21,48.20 54.35,11.32,48.18 54.35,9.44,48.16 54.35,7.55,48.14 54.34,5.66,48.12 54.34,3.78,48.11 54.34,1.89,48.09 54.34,0.00,48.07" type="driving"/>
    </edge>
    <edge id="-1.0.00" from="2.1" to="7.1" priority="1" type="driving" shape="92.53,170.30,50.21 92.70,170.51,50.21 94.08,171.95,50.16 95.71,173.11,50.10 96.34,173.44,50.08 98.21,174.14,50.01 100.18,174.46,49.90 100.89,174.49,49.86 102.34,174.48,49.77">
        <lane id="-1.0.00_0" index="0" disallow="pedestrian tram rail_urban rail rail_electric rail_fast ship" speed="8.33" length="9.35" width="3.50" shape="94.04,169.37,50.20 95.23,170.62,50.16 96.67,171.65,50.10 97.06,171.84,50.08 98.66,172.44,50.01 100.40,172.73,49.90 100.91,172.74,49.86 102.33,172.73,49.77" type="driving"/>
    </edge>
    <edge id="-2.0.00" from="5.2" to="2.1" priority="1" type="driving" shape="44.79,109.56,50.69 46.03,111.13,50.68 47.26,112.70,50.68 48.50,114.27,50.68 49.73,115.84,50.68 50.96,117.41,50.67 52.20,118.98,50.67 53.43,120.55,50.67 54.67,122.13,50.67 55.90,123.70,50.67 57.14,125.27,50.66 58.37,126.84,50.66 59.61,128.41,50.67 60.84,129.98,50.67 62.08,131.55,50.68 63.31,133.12,50.69 64.55,134.69,50.70 65.78,136.26,50.72 67.02,137.83,50.73 68.25,139.40,50.75 69.49,140.97,50.76 70.72,142.55,50.78 71.96,144.12,50.79 73.19,145.69,50.80 74.43,147.26,50.81 75.66,148.83,50.81 76.89,150.40,50.79 78.13,151.97,50.77 79.36,153.54,50.73 80.60,155.11,50.69 81.79,156.63,50.64 82.99,158.15,50.59 84.18,159.67,50.54 85.37,161.19,50.50 86.57,162.70,50.45 87.76,164.22,50.40 88.95,165.74,50.35 90.15,167.26,50.31 91.34,168.78,50.26 92.53,170.30,50.21">
        <lane id="-2.0.00_0" index="0" disallow="pedestrian tram rail_urban rail rail_electric rail_fast ship" speed="8.33" length="75.62" width="3.50" shape="47.09,109.66,50.68 47.40,110.05,50.68 48.64,111.62,50.68 49.87,113.19,50.68 51.11,114.76,50.68 52.34,116.33,50.67 53.58,117.90,50.67 54.81,119.47,50.67 56.04,121.04,50.67 57.28,122.61,50.67 58.51,124.19,50.66 59.75,125.76,50.66 60.98,127.33,50.67 62.22,128.90,50.67 63.45,130.47,50.68 64.69,132.04,50.69 65.92,133.61,50.70 67.16,135.18,50.72 68.39,136.75,50.73 69.63,138.32,50.75 70.86,139.89,50.76 72.10,141.46,50.78 73.33,143.03,50.79 74.57,144.61,50.80 75.80,146.18,50.81 77.04,147.75,50.81 78.27,149.32,50.79 79.51,150.89,50.77 80.74,152.46,50.73 81.97,154.03,50.69 83.17,155.55,50.64 84.36,157.07,50.59 85.56,158.59,50.54 86.75,160.10,50.50 87.94,161.62,50.45 89.14,163.14,50.40 90.33,164.66,50.35 91.52,166.18,50.31 92.72,167.70,50.26 93.82,169.10,50.22" type="driving"/>
    </edge>
    <edge id="-3.0.00" from="8" to="5.3" priority="1" type="driving" shape="40.84,45.11,48.90 40.84,47.05,48.94 40.84,48.99,48.98 40.84,50.93,49.03 40.84,52.86,49.07 40.83,54.80,49.12 40.83,56.74,49.16 40.83,58.68,49.21 40.83,60.61,49.25 40.83,62.55,49.30 40.83,64.49,49.35 40.83,66.42,49.40 40.83,68.36,49.46 40.83,70.30,49.51 40.83,72.24,49.56 40.82,74.17,49.62 40.82,76.11,49.67 40.82,78.05,49.72 40.82,79.99,49.78 40.82,81.92,49.84 40.82,83.86,49.91 40.82,85.80,49.97 40.82,87.74,50.05 40.82,89.67,50.12 40.82,91.61,50.19 40.81,93.55,50.26 40.81,95.49,50.33 40.81,97.42,50.40 40.81,99.36,50.47 40.81,101.30,50.55">
        <lane id="-3.0.00_0" index="0" disallow="pedestrian tram rail_urban rail rail_electric rail_fast ship" speed="8.33" length="56.07" width="3.43" shape="42.55,45.11,48.90 42.55,47.05,48.94 42.55,48.99,48.98 42.55,50.93,49.03 42.55,52.86,49.07 42.55,54.80,49.12 42.55,56.74,49.16 42.55,58.68,49.21 42.55,60.61,49.25 42.55,62.55,49.30 42.54,64.49,49.35 42.54,66.43,49.40 42.54,68.36,49.46 42.54,70.30,49.51 42.54,72.24,49.56 42.54,74.18,49.62 42.54,76.11,49.67 42.54,78.05,49.72 42.54,79.99,49.78 42.54,81.93,49.84 42.53,83.86,49.91 42.53,85.80,49.97 42.53,87.74,50.05 42.53,89.68,50.12 42.53,91.61,50.19 42.53,93.55,50.26 42.53,95.49,50.33 42.53,97.43,50.40 42.53,99.36,50.47 42.53,101.16,50.54" type="driving"/>
    </edge>
    <edge id="-4.0.00" from="8" to="4.end" priority="1" type="driving" shape="31.41,31.00,48.87 29.45,31.00,48.92 27.48,30.99,48.97 25.52,30.99,49.02 23.56,30.98,49.07 21.59,30.98,49.12 19.63,30.97,49.17 17.67,30.97,49.23 15.71,30.96,49.28 13.74,30.96,49.33 11.78,30.96,49.39 9.82,30.95,49.44 7.85,30.95,49.49 5.89,30.94,49.55 3.93,30.94,49.60 1.96,30.93,49.66 0.00,30.93,49.71">
        <lane id="-4.0.00_0" index="0" disallow="pedestrian tram rail_urban rail rail_electric rail_fast ship" speed="8.33" length="31.42" width="3.50" shape="31.41,32.75,48.87 29.44,32.75,48.92 27.48,32.74,48.97 25.52,32.74,49.02 23.55,32.73,49.07 21.59,32.73,49.12 19.63,32.72,49.17 17.66,32.72,49.23 15.70,32.71,49.28 13.74,32.71,49.33 11.77,32.71,49.39 9.81,32.70,49.44 7.85,32.70,49.49 5.89,32.69,49.55 3.92,32.69,49.60 1.96,32.68,49.66 -0.00,32.68,49.71" type="driving"/>
    </edge>
    <edge id="-5.0.00" from="5.3" to="5.2" priority="1" type="driving" shape="40.81,101.30,50.55 40.81,101.56,50.56 41.07,103.54,50.63 41.83,105.35,50.67 42.90,107.04,50.68 44.08,108.65,50.69 44.79,109.56,50.69">
        <lane id="-5.0.00_0" index="0" disallow="pedestrian tram rail_urban rail rail_electric rail_fast ship" speed="8.33" length="9.80" width="3.43" shape="42.54,101.52,50.56 42.74,103.08,50.63 43.36,104.55,50.67 44.32,106.07,50.68 45.45,107.62,50.69 47.25,109.91,50.68" type="driving"/>
    </edge>
    <edge id="-6.0.00" from="8" to="6.end" priority="1" type="driving" shape="60.91,33.59,48.18 62.89,33.58,48.14 64.87,33.56,48.09 66.85,33.55,48.05 68.83,33.53,48.00 70.81,33.52,47.96 72.79,33.50,47.91 74.77,33.48,47.87 76.75,33.47,47.82 78.73,33.45,47.78 80.71,33.44,47.73 82.69,33.42,47.69 84.67,33.41,47.65 86.65,33.39,47.61 88.63,33.38,47.56 90.61,33.36,47.52 92.59,33.35,47.48 94.57,33.33,47.44 96.55,33.31,47.40 98.53,33.30,47.36 100.52,33.28,47.32 102.50,33.27,47.28 104.48,33.25,47.24 106.46,33.24,47.20 108.44,33.22,47.16 110.42,33.21,47.12 112.40,33.19,47.09 114.38,33.17,47.05 116.36,33.16,47.01 118.34,33.14,46.97 120.32,33.13,46.94 122.30,33.11,46.90 124.28,33.10,46.86">
        <lane id="-6.0.00_0" index="0" disallow="pedestrian tram rail_urban rail rail_electric rail_fast ship" speed="8.33" length="63.38" width="3.26" shape="60.90,31.96,48.18 62.88,31.95,48.14 64.86,31.93,48.09 66.84,31.92,48.05 68.82,31.90,48.00 70.80,31.89,47.96 72.78,31.87,47.91 74.76,31.86,47.87 76.74,31.84,47.82 78.72,31.83,47.78 80.70,31.81,47.73 82.68,31.79,47.69 84.66,31.78,47.65 86.64,31.76,47.61 88.62,31.75,47.56 90.60,31.73,47.52 92.58,31.72,47.48 94.56,31.70,47.44 96.54,31.69,47.40 98.52,31.67,47.36 100.50,31.65,47.32 102.48,31.64,47.28 104.46,31.62,47.24 106.44,31.61,47.20 108.42,31.59,47.16 110.40,31.58,47.12 112.38,31.56,47.09 114.36,31.55,47.05 116.34,31.53,47.01 118.32,31.52,46.97 120.30,31.50,46.94 122.28,31.48,46.90 124.26,31.47,46.86" type="driving"/>
    </edge>
    <edge id="-7.0.00" from="7.1" to="7.end" priority="1" type="driving" shape="102.34,174.48,49.77 104.29,174.48,49.65 106.24,174.47,49.53 108.19,174.47,49.41 110.14,174.46,49.30 112.10,174.45,49.18 114.05,174.45,49.06 116.00,174.44,48.94 117.95,174.44,48.83 119.90,174.43,48.72 121.85,174.42,48.62 123.81,174.42,48.53 125.76,174.41,48.45 127.71,174.41,48.38 129.66,174.40,48.31 131.61,174.40,48.24 133.57,174.39,48.17 135.52,174.38,48.10 137.47,174.38,48.03 139.42,174.37,47.96 141.37,174.37,47.89 143.32,174.36,47.82 145.28,174.36,47.75 147.23,174.35,47.68 149.18,174.34,47.60 151.13,174.34,47.53 153.08,174.33,47.46 155.04,174.33,47.39 156.99,174.32,47.32 158.94,174.31,47.25 160.89,174.31,47.18">
        <lane id="-7.0.00_0" index="0" disallow="pedestrian tram rail_urban rail rail_electric rail_fast ship" speed="8.33" length="58.61" width="3.50" shape="102.33,172.73,49.77 104.28,172.73,49.65 106.24,172.72,49.53 108.19,172.72,49.41 110.14,172.71,49.30 112.09,172.70,49.18 114.04,172.70,49.06 115.99,172.69,48.94 117.95,172.69,48.83 119.90,172.68,48.72 121.85,172.67,48.62 123.80,172.67,48.53 125.75,172.66,48.45 127.71,172.66,48.38 129.66,172.65,48.31 131.61,172.65,48.24 133.56,172.64,48.17 135.51,172.63,48.10 137.46,172.63,48.03 139.42,172.62,47.96 141.37,172.62,47.89 143.32,172.61,47.82 145.27,172.61,47.75 147.22,172.60,47.68 149.17,172.59,47.60 151.13,172.59,47.53 153.08,172.58,47.46 155.03,172.58,47.39 156.98,172.57,47.32 158.93,172.56,47.25 160.89,172.56,47.18" type="driving"/>
    </edge>
    <edge id="1.0.00" from="7.1" to="2.1" priority="1" type="driving" shape="102.34,174.48,49.77 100.89,174.49,49.86 100.18,174.46,49.90 98.21,174.14,50.01 96.34,173.44,50.08 95.71,173.11,50.10 94.08,171.95,50.16 92.70,170.51,50.21 92.53,170.30,50.21">
        <lane id="1.0.00_0" index="0" disallow="pedestrian tram rail_urban rail rail_electric rail_fast ship" speed="8.33" length="12.53" width="3.50" shape="102.34,176.23,49.77 100.88,176.24,49.86 100.01,176.21,49.90 97.76,175.84,50.01 95.67,175.06,50.08 94.78,174.60,50.10 92.93,173.28,50.16 91.42,171.70,50.21 91.28,171.53,50.21" type="driving"/>
    </edge>
    <edge id="2.0.00" from="2.1" to="5.2" priority="1" type="driving" shape="92.53,170.30,50.21 91.34,168.78,50.26 90.15,167.26,50.31 88.95,165.74,50.35 87.76,164.22,50.40 86.57,162.70,50.45 85.37,161.19,50.50 84.18,159.67,50.54 82.99,158.15,50.59 81.79,156.63,50.64 80.60,155.11,50.69 79.36,153.54,50.73 78.13,151.97,50.77 76.89,150.40,50.79 75.66,148.83,50.81 74.43,147.26,50.81 73.19,145.69,50.80 71.96,144.12,50.79 70.72,142.55,50.78 69.49,140.97,50.76 68.25,139.40,50.75 67.02,137.83,50.73 65.78,136.26,50.72 64.55,134.69,50.70 63.31,133.12,50.69 62.08,131.55,50.68 60.84,129.98,50.67 59.61,128.41,50.67 58.37,126.84,50.66 57.14,125.27,50.66 55.90,123.70,50.67 54.67,122.13,50.67 53.43,120.55,50.67 52.20,118.98,50.67 50.96,117.41,50.67 49.73,115.84,50.68 48.50,114.27,50.68 47.26,112.70,50.68 46.03,111.13,50.68 44.79,109.56,50.69">
        <lane id="2.0.00_0" index="0" disallow="pedestrian tram rail_urban rail rail_electric rail_fast ship" speed="8.33" length="75.62" width="3.50" shape="91.07,171.26,50.22 89.97,169.86,50.26 88.77,168.34,50.31 87.58,166.82,50.35 86.38,165.30,50.40 85.19,163.79,50.45 84.00,162.27,50.50 82.80,160.75,50.54 81.61,159.23,50.59 80.42,157.71,50.64 79.22,156.19,50.69 77.99,154.62,50.73 76.75,153.05,50.77 75.52,151.48,50.79 74.28,149.91,50.81 73.05,148.34,50.81 71.81,146.77,50.80 70.58,145.20,50.79 69.34,143.63,50.78 68.11,142.06,50.76 66.88,140.49,50.75 65.64,138.91,50.73 64.41,137.34,50.72 63.17,135.77,50.70 61.94,134.20,50.69 60.70,132.63,50.68 59.47,131.06,50.67 58.23,129.49,50.67 57.00,127.92,50.66 55.76,126.35,50.66 54.53,124.78,50.67 53.29,123.21,50.67 52.06,121.64,50.67 50.82,120.07,50.67 49.59,118.49,50.67 48.35,116.92,50.68 47.12,115.35,50.68 45.88,113.78,50.68 44.65,112.21,50.68 44.34,111.82,50.68" type="driving"/>
    </edge>
    <edge id="3.0.00" from="5.3" to="8" priority="1" type="driving" shape="40.81,101.30,50.55 40.81,99.36,50.47 40.81,97.42,50.40 40.81,95.49,50.33 40.81,93.55,50.26 40.82,91.61,50.19 40.82,89.67,50.12 40.82,87.74,50.05 40.82,85.80,49.97 40.82,83.86,49.91 40.82,81.92,49.84 40.82,79.99,49.78 40.82,78.05,49.72 40.82,76.11,49.67 40.82,74.17,49.62 40.83,72.24,49.56 40.83,70.30,49.51 40.83,68.36,49.46 40.83,66.42,49.40 40.83,64.49,49.35 40.83,62.55,49.30 40.83,60.61,49.25 40.83,58.68,49.21 40.83,56.74,49.16 40.83,54.80,49.12 40.84,52.86,49.07 40.84,50.93,49.03 40.84,48.99,48.98 40.84,47.05,48.94 40.84,45.11,48.90">
        <lane id="3.0.00_0" index="0" disallow="pedestrian tram rail_urban rail rail_electric rail_fast ship" speed="8.33" length="56.07" width="3.08" shape="39.27,101.16,50.54 39.27,99.36,50.47 39.27,97.42,50.40 39.27,95.49,50.33 39.28,93.55,50.26 39.28,91.61,50.19 39.28,89.67,50.12 39.28,87.74,50.05 39.28,85.80,49.97 39.28,83.86,49.91 39.28,81.92,49.84 39.28,79.99,49.78 39.28,78.05,49.72 39.28,76.11,49.67 39.28,74.17,49.62 39.29,72.24,49.56 39.29,70.30,49.51 39.29,68.36,49.46 39.29,66.42,49.40 39.29,64.49,49.35 39.29,62.55,49.30 39.29,60.61,49.25 39.29,58.67,49.21 39.29,56.74,49.16 39.29,54.80,49.12 39.30,52.86,49.07 39.30,50.92,49.03 39.30,48.99,48.98 39.30,47.05,48.94 39.30,45.11,48.90" type="driving"/>
    </edge>
    <edge id="4.0.00" from="4.end" to="8" priority="1" type="driving" shape="0.00,30.93,49.71 1.96,30.93,49.66 3.93,30.94,49.60 5.89,30.94,49.55 7.85,30.95,49.49 9.82,30.95,49.44 11.78,30.96,49.39 13.74,30.96,49.33 15.71,30.96,49.28 17.67,30.97,49.23 19.63,30.97,49.17 21.59,30.98,49.12 23.56,30.98,49.07 25.52,30.99,49.02 27.48,30.99,48.97 29.45,31.00,48.92 31.41,31.00,48.87">
        <lane id="4.0.00_0" index="0" disallow="pedestrian tram rail_urban rail rail_electric rail_fast ship" speed="8.33" length="31.42" width="3.31" shape="0.00,29.27,49.71 1.97,29.27,49.66 3.93,29.28,49.60 5.89,29.28,49.55 7.86,29.29,49.49 9.82,29.29,49.44 11.78,29.30,49.39 13.75,29.30,49.33 15.71,29.31,49.28 17.67,29.31,49.23 19.64,29.32,49.17 21.60,29.32,49.12 23.56,29.33,49.07 25.52,29.33,49.02 27.49,29.34,48.97 29.45,29.34,48.92 31.41,29.35,48.87" type="driving"/>
    </edge>
    <edge id="5.0.00" from="5.2" to="5.3" priority="1" type="driving" shape="44.79,109.56,50.69 44.08,108.65,50.69 42.90,107.04,50.68 41.83,105.35,50.67 41.07,103.54,50.63 40.81,101.56,50.56 40.81,101.30,50.55">
        <lane id="5.0.00_0" index="0" disallow="pedestrian tram rail_urban rail rail_electric rail_fast ship" speed="8.33" length="11.97" width="3.08" shape="44.69,111.92,50.68 42.85,109.58,50.69 41.63,107.90,50.68 40.46,106.06,50.67 39.58,103.94,50.63 39.28,101.74,50.56 39.28,101.52,50.55" type="driving"/>
    </edge>
    <edge id="6.0.00" from="6.end" to="8" priority="1" type="driving" shape="124.28,33.10,46.86 122.30,33.11,46.90 120.32,33.13,46.94 118.34,33.14,46.97 116.36,33.16,47.01 114.38,33.17,47.05 112.40,33.19,47.09 110.42,33.21,47.12 108.44,33.22,47.16 106.46,33.24,47.20 104.48,33.25,47.24 102.50,33.27,47.28 100.52,33.28,47.32 98.53,33.30,47.36 96.55,33.31,47.40 94.57,33.33,47.44 92.59,33.35,47.48 90.61,33.36,47.52 88.63,33.38,47.56 86.65,33.39,47.61 84.67,33.41,47.65 82.69,33.42,47.69 80.71,33.44,47.73 78.73,33.45,47.78 76.75,33.47,47.82 74.77,33.48,47.87 72.79,33.50,47.91 70.81,33.52,47.96 68.83,33.53,48.00 66.85,33.55,48.05 64.87,33.56,48.09 62.89,33.58,48.14 60.91,33.59,48.18">
        <lane id="6.0.00_0" index="0" disallow="pedestrian tram rail_urban rail rail_electric rail_fast ship" speed="8.33" length="63.38" width="3.50" shape="124.29,34.85,46.86 122.31,34.86,46.90 120.33,34.88,46.94 118.35,34.89,46.97 116.37,34.91,47.01 114.39,34.92,47.05 112.41,34.94,47.09 110.43,34.96,47.12 108.45,34.97,47.16 106.47,34.99,47.20 104.49,35.00,47.24 102.51,35.02,47.28 100.53,35.03,47.32 98.55,35.05,47.36 96.57,35.06,47.40 94.59,35.08,47.44 92.61,35.10,47.48 90.63,35.11,47.52 88.65,35.13,47.56 86.67,35.14,47.61 84.69,35.16,47.65 82.71,35.17,47.69 80.73,35.19,47.73 78.75,35.20,47.78 76.77,35.22,47.82 74.79,35.23,47.87 72.81,35.25,47.91 70.83,35.27,47.96 68.85,35.28,48.00 66.87,35.30,48.05 64.88,35.31,48.09 62.90,35.33,48.14 60.92,35.34,48.18" type="driving"/>
    </edge>
    <edge id="7.0.00" from="7.end" to="7.1" priority="1" type="driving" shape="160.89,174.31,47.18 158.94,174.31,47.25 156.99,174.32,47.32 155.04,174.33,47.39 153.08,174.33,47.46 151.13,174.34,47.53 149.18,174.34,47.60 147.23,174.35,47.68 145.28,174.36,47.75 143.32,174.36,47.82 141.37,174.37,47.89 139.42,174.37,47.96 137.47,174.38,48.03 135.52,174.38,48.10 133.57,174.39,48.17 131.61,174.40,48.24 129.66,174.40,48.31 127.71,174.41,48.38 125.76,174.41,48.45 123.81,174.42,48.53 121.85,174.42,48.62 119.90,174.43,48.72 117.95,174.44,48.83 116.00,174.44,48.94 114.05,174.45,49.06 112.10,174.45,49.18 110.14,174.46,49.30 108.19,174.47,49.41 106.24,174.47,49.53 104.29,174.48,49.65 102.34,174.48,49.77">
        <lane id="7.0.00_0" index="0" disallow="pedestrian tram rail_urban rail rail_electric rail_fast ship" speed="8.33" length="58.61" width="3.50" shape="160.90,176.06,47.18 158.94,176.06,47.25 156.99,176.07,47.32 155.04,176.08,47.39 153.09,176.08,47.46 151.14,176.09,47.53 149.19,176.09,47.60 147.23,176.10,47.68 145.28,176.11,47.75 143.33,176.11,47.82 141.38,176.12,47.89 139.43,176.12,47.96 137.47,176.13,48.03 135.52,176.13,48.10 133.57,176.14,48.17 131.62,176.15,48.24 129.67,176.15,48.31 127.72,176.16,48.38 125.76,176.16,48.45 123.81,176.17,48.53 121.86,176.17,48.62 119.91,176.18,48.72 117.96,176.19,48.83 116.00,176.19,48.94 114.05,176.20,49.06 112.10,176.20,49.18 110.15,176.21,49.30 108.20,176.22,49.41 106.25,176.22,49.53 104.29,176.23,49.65 102.34,176.23,49.77" type="driving"/>
    </edge>

    <junction id="0.end" type="dead_end" x="49.03" y="0.01" z="48.07" incLanes="-0.0.00_0" intLanes="" shape="52.17,0.01,48.07 56.51,-0.00,48.07"/>
    <junction id="2.1" type="priority" x="92.53" y="170.30" z="50.21" incLanes="1.0.00_0 -2.0.00_0" intLanes=":2.1_0_0 :2.1_1_0" shape="89.91,172.61,50.21 95.42,168.28,50.21 95.33,168.19,50.21 95.24,168.08,50.21 89.69,172.34,50.21">
        <request index="0" response="00" foes="00" cont="0"/>
        <request index="1" response="00" foes="00" cont="0"/>
    </junction>
    <junction id="4.end" type="priority" x="0.00" y="30.93" z="49.71" incLanes="-4.0.00_0" intLanes=":4.end_0_0" shape="-0.00,30.93,49.71 -0.01,34.43,49.71 -0.00,30.93,49.71">
        <request index="0" response="0" foes="0" cont="0"/>
    </junction>
    <junction id="5.2" type="priority" x="44.79" y="109.56" z="50.69" incLanes="2.0.00_0 -5.0.00_0" intLanes=":5.2_0_0 :5.2_1_0" shape="42.97,112.90,50.69 48.47,108.58,50.69 46.15,110.77,50.69 37.54,95.86,50.69">
        <request index="0" response="00" foes="00" cont="0"/>
        <request index="1" response="00" foes="00" cont="0"/>
    </junction>
    <junction id="5.3" type="priority" x="40.81" y="101.30" z="50.55" incLanes="5.0.00_0 -3.0.00_0" intLanes=":5.3_0_0 :5.3_1_0" shape="37.74,101.52,50.55 44.27,101.52,50.55 44.25,101.39,50.55 44.24,101.34,50.55 44.24,101.24,50.55 37.73,101.15,50.55">
        <request index="0" response="00" foes="00" cont="0"/>
        <request index="1" response="00" foes="00" cont="0"/>
    </junction>
    <junction id="6.end" type="priority" x="124.28" y="33.10" z="46.86" incLanes="-6.0.00_0" intLanes=":6.end_0_0" shape="124.28,33.10,46.86 124.25,29.84,46.86 124.28,33.10,46.86">
        <request index="0" response="0" foes="0" cont="0"/>
    </junction>
    <junction id="7.1" type="priority" x="102.34" y="174.48" z="49.77" incLanes="7.0.00_0 -1.0.00_0" intLanes=":7.1_0_0 :7.1_1_0" shape="102.35,177.98,49.77 102.33,170.98,49.77 102.35,177.98,49.77">
        <request index="0" response="00" foes="00" cont="0"/>
        <request index="1" response="00" foes="00" cont="0"/>
    </junction>
    <junction id="7.end" type="priority" x="160.89" y="174.31" z="47.18" incLanes="-7.0.00_0" intLanes=":7.end_0_0" shape="160.89,174.31,47.18 160.88,170.81,47.18 160.89,174.31,47.18">
        <request index="0" response="0" foes="0" cont="0"/>
    </junction>