<?xml version="1.0" encoding="UTF-8"?>

<!-- generated on 2021-11-07 07:09:44 by Eclipse SUMO netedit Version 1.10.0
<configuration xmlns:xsi="http://www.w3.org/2001/XMLSchema-instance" xsi:noNamespaceSchemaLocation="http://sumo.dlr.de/xsd/netconvertConfiguration.xsd">

    <input>
        <sumo-net-file value="sumo/sumocfgs/../nets/suburb_02.net.xml"/>
    </input>

    <output>
        <output-file value="sumo/sumocfgs/../nets/suburb_02.net.xml"/>
    </output>

    <processing>
        <geometry.min-radius.fix.railways value="false"/>
        <geometry.max-grade.fix value="false"/>
        <offset.disable-normalization value="true"/>
        <lefthand value="false"/>
    </processing>

    <junctions>
        <no-turnarounds value="true"/>
        <junctions.corner-detail value="5"/>
        <junctions.limit-turn-speed value="5.5"/>
        <rectangular-lane-cut value="true"/>
    </junctions>

    <pedestrian>
        <walkingareas value="false"/>
    </pedestrian>

    <report>
        <aggregate-warnings value="5"/>
    </report>

</configuration>
-->

<net version="1.9" junctionCornerDetail="5" rectangularLaneCut="true" limitTurnSpeed="5.50" xmlns:xsi="http://www.w3.org/2001/XMLSchema-instance" xsi:noNamespaceSchemaLocation="http://sumo.dlr.de/xsd/net_file.xsd">

    <location netOffset="0.00,58.93" convBoundary="0.00,0.00,596.54,537.60" origBoundary="0.000000,0.000000,0.000000,0.000000" projParameter="+proj=tmerc +lat_0=0 +lon_0=0 +k=1 +x_0=0 +y_0=0 +datum=WGS84 +units=m +geoidgrids=egm96_15.gtx +vunits=m +no_defs "/>

    <type id="bidirectional" priority="1" speed="1.39" disallow="pedestrian tram rail_urban rail rail_electric rail_fast ship" width="3.65"/>
    <type id="border" priority="0" speed="1.39" disallow="all" discard="0" width="0.10"/>
    <type id="driving" priority="1" speed="13.89" disallow="pedestrian tram rail_urban rail rail_electric rail_fast ship" width="3.65"/>
    <type id="entry" priority="1" speed="22.22" disallow="pedestrian tram rail_urban rail rail_electric rail_fast ship" width="3.65"/>
    <type id="exit" priority="1" speed="22.22" disallow="pedestrian tram rail_urban rail rail_electric rail_fast ship" width="3.65"/>
    <type id="median" priority="0" speed="1.39" disallow="all" discard="0" width="0.10"/>
    <type id="mwyEntry" priority="1" speed="22.22" allow="private emergency authority army vip passenger hov taxi bus coach delivery truck trailer motorcycle evehicle custom1 custom2" width="3.65"/>
    <type id="mwyExit" priority="1" speed="22.22" allow="private emergency authority army vip passenger hov taxi bus coach delivery truck trailer motorcycle evehicle custom1 custom2" width="3.65"/>
    <type id="none" priority="0" speed="1.39" disallow="all" discard="0" width="1.00"/>
    <type id="offRamp" priority="1" speed="22.22" allow="private emergency authority army vip passenger hov taxi bus coach delivery truck trailer motorcycle evehicle custom1 custom2" width="3.65"/>
    <type id="onRamp" priority="1" speed="22.22" allow="private emergency authority army vip passenger hov taxi bus coach delivery truck trailer motorcycle evehicle custom1 custom2" width="3.65"/>
    <type id="parking" priority="1" speed="1.39" disallow="pedestrian tram rail_urban rail rail_electric rail_fast ship" width="2.50"/>
    <type id="rail" priority="3" speed="33.33" allow="rail_urban rail rail_electric rail_fast" width="3.65"/>
    <type id="restricted" priority="0" speed="13.89" disallow="all" width="3.65"/>
    <type id="roadWorks" priority="0" speed="1.39" allow="authority" width="3.65"/>
    <type id="shoulder" priority="0" speed="1.39" disallow="all" discard="0" width="1.00"/>
    <type id="special1" priority="1" speed="22.22" allow="custom1" discard="0" width="3.65"/>
    <type id="special2" priority="1" speed="22.22" allow="custom2" discard="0" width="3.65"/>
    <type id="special3" priority="1" speed="22.22" allow="custom1 custom2" discard="0" width="3.65"/>
    <type id="stop" priority="1" speed="13.89" disallow="pedestrian tram rail_urban rail rail_electric rail_fast ship" width="3.65"/>
    <type id="tram" priority="2" speed="13.89" allow="tram" width="3.65"/>

    <edge id=":110_0" function="internal">
        <lane id=":110_0_0" index="0" disallow="pedestrian tram rail_urban rail rail_electric rail_fast ship" speed="8.49" length="10.01" width="4.50" shape="206.41,461.18 196.40,461.18"/>
    </edge>
    <edge id=":110_1" function="internal">
        <lane id=":110_1_0" index="0" disallow="pedestrian tram rail_urban rail rail_electric rail_fast ship" speed="8.49" length="10.01" width="3.50" shape="196.40,457.18 206.41,457.18"/>
    </edge>
    <edge id=":117_0" function="internal">
        <lane id=":117_0_0" index="0" disallow="pedestrian tram rail_urban rail rail_electric rail_fast ship" speed="8.49" length="9.50" width="4.00" shape="436.81,60.93 427.31,60.93"/>
    </edge>
    <edge id=":117_1" function="internal">
        <lane id=":117_1_0" index="0" disallow="pedestrian tram rail_urban rail rail_electric rail_fast ship" speed="8.49" length="9.50" width="4.00" shape="427.31,56.93 436.81,56.93"/>
    </edge>
    <edge id=":124_0" function="internal">
        <lane id=":124_0_0" index="0" disallow="pedestrian tram rail_urban rail rail_electric rail_fast ship" speed="8.49" length="30.88" width="5.00" shape="554.44,46.40 546.68,76.29"/>
    </edge>
    <edge id=":124_1" function="internal">
        <lane id=":124_1_0" index="0" disallow="pedestrian tram rail_urban rail rail_electric rail_fast ship" speed="8.49" length="9.33" width="4.00" shape="554.44,46.40 551.52,52.76 549.80,54.33"/>
    </edge>
    <edge id=":124_6" function="internal">
        <lane id=":124_6_0" index="0" disallow="pedestrian tram rail_urban rail rail_electric rail_fast ship" speed="8.49" length="21.10" width="4.00" shape="549.80,54.33 546.54,57.30 539.50,60.02 530.40,60.93"/>
    </edge>
    <edge id=":124_2" function="internal">
        <lane id=":124_2_0" index="0" disallow="pedestrian tram rail_urban rail rail_electric rail_fast ship" speed="8.49" length="24.42" width="5.00" shape="530.40,56.93 537.65,56.19 543.27,53.98 547.25,50.30 549.60,45.14">
            <param key="signalID" value="529"/>
        </lane>
    </edge>
    <edge id=":124_3" function="internal">
        <lane id=":124_3_0" index="0" disallow="pedestrian tram rail_urban rail rail_electric rail_fast ship" speed="8.49" length="31.08" width="5.00" shape="530.40,56.93 539.37,58.04 545.13,61.51 547.60,67.53 546.68,76.29">
            <param key="signalID" value="524"/>
        </lane>
    </edge>
    <edge id=":124_4" function="internal">
        <lane id=":124_4_0" index="0" disallow="pedestrian tram rail_urban rail rail_electric rail_fast ship" speed="8.49" length="22.18" width="4.00" shape="541.84,75.03 542.50,68.86 540.81,64.46 536.78,61.81 530.40,60.93">
            <param key="signalID" value="529"/>
        </lane>
    </edge>
    <edge id=":124_5" function="internal">
        <lane id=":124_5_0" index="0" disallow="pedestrian tram rail_urban rail rail_electric rail_fast ship" speed="8.49" length="30.88" width="5.00" shape="541.84,75.03 549.60,45.14">
            <param key="signalID" value="529"/>
        </lane>
    </edge>
    <edge id=":165_0" function="internal">
        <lane id=":165_0_0" index="0" disallow="pedestrian tram rail_urban rail rail_electric rail_fast ship" speed="8.49" length="30.70" width="4.50" shape="97.75,274.59 97.75,243.89">
            <param key="signalID" value="507"/>
        </lane>
    </edge>
    <edge id=":165_1" function="internal">
        <lane id=":165_1_0" index="0" disallow="pedestrian tram rail_urban rail rail_electric rail_fast ship" speed="8.49" length="10.35" width="5.00" shape="97.75,274.59 98.84,266.64 100.00,264.63">
            <param key="signalID" value="509"/>
        </lane>
    </edge>
    <edge id=":165_6" function="internal">
        <lane id=":165_6_0" index="0" disallow="pedestrian tram rail_urban rail rail_electric rail_fast ship" speed="8.49" length="18.35" width="5.00" shape="100.00,264.63 102.10,260.97 107.55,257.56 115.17,256.43">
            <param key="signalID" value="509"/>
        </lane>
    </edge>
    <edge id=":165_2" function="internal">
        <lane id=":165_2_0" index="0" disallow="pedestrian tram rail_urban rail rail_electric rail_fast ship" speed="8.49" length="21.03" width="4.50" shape="115.17,261.43 109.52,262.25 105.48,264.72 103.06,268.83 102.25,274.59">
            <param key="signalID" value="511"/>
        </lane>
    </edge>
    <edge id=":165_3" function="internal">
        <lane id=":165_3_0" index="0" disallow="pedestrian tram rail_urban rail rail_electric rail_fast ship" speed="8.49" length="28.19" width="4.50" shape="115.17,261.43 107.55,260.33 102.11,257.04 98.84,251.56 97.75,243.89">
            <param key="signalID" value="509"/>
        </lane>
    </edge>
    <edge id=":165_4" function="internal">
        <lane id=":165_4_0" index="0" disallow="pedestrian tram rail_urban rail rail_electric rail_fast ship" speed="8.49" length="20.53" width="5.00" shape="102.25,243.89 103.06,249.38 105.48,253.30 109.52,255.65 115.17,256.43">
            <param key="signalID" value="510"/>
        </lane>
    </edge>
    <edge id=":165_5" function="internal">
        <lane id=":165_5_0" index="0" disallow="pedestrian tram rail_urban rail rail_electric rail_fast ship" speed="8.49" length="30.70" width="4.50" shape="102.25,243.89 102.25,274.59">
            <param key="signalID" value="509"/>
        </lane>
    </edge>
    <edge id=":17.begin_0" function="internal">
        <lane id=":17.begin_0_0" index="0" disallow="pedestrian tram rail_urban rail rail_electric rail_fast ship" speed="4.08" length="5.84" width="4.00" shape="0.00,60.93 -1.50,59.93 -2.00,58.93 -1.50,57.93 0.00,56.93"/>
    </edge>
    <edge id=":199_0" function="internal">
        <lane id=":199_0_0" index="0" disallow="pedestrian tram rail_urban rail rail_electric rail_fast ship" speed="8.49" length="20.57" width="5.00" shape="298.53,274.07 297.71,268.54 295.30,264.59 291.27,262.22 285.65,261.43"/>
    </edge>
    <edge id=":199_1" function="internal">
        <lane id=":199_1_0" index="0" disallow="pedestrian tram rail_urban rail rail_electric rail_fast ship" speed="8.49" length="30.15" width="4.00" shape="298.53,274.07 298.45,243.92"/>
    </edge>
    <edge id=":199_2" function="internal">
        <lane id=":199_2_0" index="0" disallow="pedestrian tram rail_urban rail rail_electric rail_fast ship" speed="8.49" length="27.13" width="5.00" shape="298.53,274.07 299.51,266.36 302.50,260.84 307.49,257.53 314.49,256.43"/>
    </edge>
    <edge id=":199_3" function="internal">
        <lane id=":199_3_0" index="0" disallow="pedestrian tram rail_urban rail rail_electric rail_fast ship" speed="8.49" length="19.85" width="4.00" shape="314.49,261.43 309.25,262.22 305.51,264.59 303.27,268.54 302.53,274.07"/>
    </edge>
    <edge id=":199_4" function="internal">
        <lane id=":199_4_0" index="0" disallow="pedestrian tram rail_urban rail rail_electric rail_fast ship" speed="8.49" length="28.84" width="5.00" shape="314.49,261.43 285.65,261.43"/>
    </edge>
    <edge id=":199_5" function="internal">
        <lane id=":199_5_0" index="0" disallow="pedestrian tram rail_urban rail rail_electric rail_fast ship" speed="8.49" length="27.04" width="4.00" shape="314.49,261.43 307.49,260.34 302.48,257.05 299.47,251.58 298.45,243.92"/>
    </edge>
    <edge id=":199_6" function="internal">
        <lane id=":199_6_0" index="0" disallow="pedestrian tram rail_urban rail rail_electric rail_fast ship" speed="8.49" length="19.79" width="5.00" shape="302.45,243.92 303.21,249.39 305.48,253.30 309.23,255.65 314.49,256.43"/>
    </edge>
    <edge id=":199_7" function="internal">
        <lane id=":199_7_0" index="0" disallow="pedestrian tram rail_urban rail rail_electric rail_fast ship" speed="8.49" length="30.15" width="4.00" shape="302.45,243.92 302.53,274.07"/>
    </edge>
    <edge id=":199_8" function="internal">
        <lane id=":199_8_0" index="0" disallow="pedestrian tram rail_urban rail rail_electric rail_fast ship" speed="8.49" length="27.69" width="5.00" shape="302.45,243.92 301.42,251.58 298.27,257.05 293.02,260.34 285.65,261.43"/>
    </edge>
    <edge id=":199_9" function="internal">
        <lane id=":199_9_0" index="0" disallow="pedestrian tram rail_urban rail rail_electric rail_fast ship" speed="8.49" length="20.42" width="4.00" shape="285.65,256.43 291.26,255.65 295.27,253.30 297.66,249.40 298.45,243.92"/>
    </edge>
    <edge id=":199_10" function="internal">
        <lane id=":199_10_0" index="0" disallow="pedestrian tram rail_urban rail rail_electric rail_fast ship" speed="8.49" length="28.84" width="5.00" shape="285.65,256.43 314.49,256.43"/>
    </edge>
    <edge id=":199_11" function="internal">
        <lane id=":199_11_0" index="0" disallow="pedestrian tram rail_urban rail rail_electric rail_fast ship" speed="8.49" length="27.82" width="4.00" shape="285.65,256.43 293.02,257.53 298.29,260.84 301.46,266.35 302.53,274.07"/>
    </edge>
    <edge id=":22.12_0" function="internal">
        <lane id=":22.12_0_0" index="0" disallow="pedestrian tram rail_urban rail rail_electric rail_fast ship" speed="8.49" length="0.10" width="4.50" shape="97.75,428.93 97.75,428.93"/>
    </edge>
    <edge id=":22.12_1" function="internal">
        <lane id=":22.12_1_0" index="0" disallow="pedestrian tram rail_urban rail rail_electric rail_fast ship" speed="8.49" length="0.10" width="4.50" shape="102.25,428.93 102.25,428.93"/>
    </edge>
    <edge id=":25.11_0" function="internal">
        <lane id=":25.11_0_0" index="0" disallow="pedestrian tram rail_urban rail rail_electric rail_fast ship" speed="8.49" length="0.29" width="4.50" shape="500.14,461.18 499.85,461.18"/>
    </edge>
    <edge id=":25.11_1" function="internal">
        <lane id=":25.11_1_0" index="0" disallow="pedestrian tram rail_urban rail rail_electric rail_fast ship" speed="8.49" length="0.31" width="3.50" shape="499.85,457.18 500.16,457.18"/>
    </edge>
    <edge id=":25.end_0" function="internal">
        <lane id=":25.end_0_0" index="0" disallow="pedestrian tram rail_urban rail rail_electric rail_fast ship" speed="4.00" length="5.84" width="4.50" shape="597.06,477.94 598.20,479.34 598.37,480.44 597.60,481.25 595.87,481.76"/>
    </edge>
    <edge id=":26_0" function="internal">
        <lane id=":26_0_0" index="0" disallow="pedestrian tram rail_urban rail rail_electric rail_fast ship" speed="8.49" length="29.95" width="5.00" shape="505.67,246.37 500.55,275.88"/>
    </edge>
    <edge id=":26_1" function="internal">
        <lane id=":26_1_0" index="0" disallow="pedestrian tram rail_urban rail rail_electric rail_fast ship" speed="8.49" length="9.00" width="5.00" shape="505.67,246.37 503.09,252.96 501.75,254.34"/>
    </edge>
    <edge id=":26_6" function="internal">
        <lane id=":26_6_0" index="0" disallow="pedestrian tram rail_urban rail rail_electric rail_fast ship" speed="8.49" length="20.43" width="5.00" shape="501.75,254.34 498.52,257.67 491.94,260.49 483.36,261.43"/>
    </edge>
    <edge id=":26_2" function="internal">
        <lane id=":26_2_0" index="0" disallow="pedestrian tram rail_urban rail rail_electric rail_fast ship" speed="8.49" length="22.53" width="5.00" shape="483.36,256.43 490.11,255.74 495.26,253.66 498.82,250.20 500.77,245.35">
            <param key="signalID" value="549"/>
        </lane>
    </edge>
    <edge id=":26_3" function="internal">
        <lane id=":26_3_0" index="0" disallow="pedestrian tram rail_urban rail rail_electric rail_fast ship" speed="8.49" length="30.65" width="5.00" shape="483.36,256.43 491.91,257.65 497.62,261.29 500.50,267.37 500.55,275.88">
            <param key="signalID" value="550"/>
        </lane>
    </edge>
    <edge id=":26_4" function="internal">
        <lane id=":26_4_0" index="0" disallow="pedestrian tram rail_urban rail rail_electric rail_fast ship" speed="8.49" length="21.73" width="5.00" shape="495.59,275.18 495.56,269.16 493.51,264.87 489.44,262.29 483.36,261.43">
            <param key="signalID" value="549"/>
        </lane>
    </edge>
    <edge id=":26_5" function="internal">
        <lane id=":26_5_0" index="0" disallow="pedestrian tram rail_urban rail rail_electric rail_fast ship" speed="8.49" length="30.28" width="5.00" shape="495.59,275.18 500.77,245.35">
            <param key="signalID" value="549"/>
        </lane>
    </edge>
    <edge id=":300_0" function="internal">
        <lane id=":300_0_0" index="0" disallow="pedestrian tram rail_urban rail rail_electric rail_fast ship" speed="8.49" length="23.07" width="5.00" shape="493.82,461.18 487.71,462.08 483.27,464.78 480.49,469.29 479.37,475.59"/>
    </edge>
    <edge id=":300_1" function="internal">
        <lane id=":300_1_0" index="0" disallow="pedestrian tram rail_urban rail rail_electric rail_fast ship" speed="8.49" length="31.18" width="4.50" shape="493.82,461.18 462.64,461.18"/>
    </edge>
    <edge id=":300_2" function="internal">
        <lane id=":300_2_0" index="0" disallow="pedestrian tram rail_urban rail rail_electric rail_fast ship" speed="8.49" length="10.61" width="5.00" shape="493.82,461.18 485.73,460.14 483.59,458.93"/>
    </edge>
    <edge id=":300_12" function="internal">
        <lane id=":300_12_0" index="0" disallow="pedestrian tram rail_urban rail rail_electric rail_fast ship" speed="8.49" length="17.28" width="5.00" shape="483.59,458.93 480.18,457.00 477.17,451.78 476.70,444.46"/>
    </edge>
    <edge id=":300_3" function="internal">
        <lane id=":300_3_0" index="0" disallow="pedestrian tram rail_urban rail rail_electric rail_fast ship" speed="8.49" length="20.11" width="3.50" shape="481.68,444.94 482.00,450.29 484.12,454.12 488.07,456.41 493.82,457.18"/>
    </edge>
    <edge id=":300_4" function="internal">
        <lane id=":300_4_0" index="0" disallow="pedestrian tram rail_urban rail rail_electric rail_fast ship" speed="8.49" length="30.74" width="5.00" shape="481.68,444.94 479.37,475.59"/>
    </edge>
    <edge id=":300_5" function="internal">
        <lane id=":300_5_0" index="0" disallow="pedestrian tram rail_urban rail rail_electric rail_fast ship" speed="8.49" length="27.96" width="4.50" shape="481.68,444.94 479.90,452.04 476.14,457.12 470.38,460.16 462.64,461.18"/>
    </edge>
    <edge id=":300_6" function="internal">
        <lane id=":300_6_0" index="0" disallow="pedestrian tram rail_urban rail rail_electric rail_fast ship" speed="8.49" length="21.19" width="5.00" shape="462.64,457.18 468.33,456.39 472.57,454.00 475.36,450.03 476.70,444.46"/>
    </edge>
    <edge id=":300_7" function="internal">
        <lane id=":300_7_0" index="0" disallow="pedestrian tram rail_urban rail rail_electric rail_fast ship" speed="8.49" length="31.18" width="3.50" shape="462.64,457.18 493.82,457.18"/>
    </edge>
    <edge id=":300_8" function="internal">
        <lane id=":300_8_0" index="0" disallow="pedestrian tram rail_urban rail rail_electric rail_fast ship" speed="8.49" length="8.78" width="5.00" shape="462.64,457.18 470.23,458.33 471.16,458.93"/>
    </edge>
    <edge id=":300_13" function="internal">
        <lane id=":300_13_0" index="0" disallow="pedestrian tram rail_urban rail rail_electric rail_fast ship" speed="8.49" length="19.84" width="5.00" shape="471.16,458.93 475.55,461.78 478.60,467.54 479.37,475.59"/>
    </edge>
    <edge id=":300_9" function="internal">
        <lane id=":300_9_0" index="0" disallow="pedestrian tram rail_urban rail rail_electric rail_fast ship" speed="8.49" length="21.17" width="4.50" shape="474.37,475.39 473.85,469.17 471.72,464.73 467.99,462.07 462.64,461.18"/>
    </edge>
    <edge id=":300_10" function="internal">
        <lane id=":300_10_0" index="0" disallow="pedestrian tram rail_urban rail rail_electric rail_fast ship" speed="8.49" length="31.02" width="5.00" shape="474.37,475.39 476.70,444.46"/>
    </edge>
    <edge id=":300_11" function="internal">
        <lane id=":300_11_0" index="0" disallow="pedestrian tram rail_urban rail rail_electric rail_fast ship" speed="8.49" length="30.12" width="3.50" shape="474.37,475.39 475.86,467.42 479.60,461.73 485.58,458.32 493.82,457.18"/>
    </edge>
    <edge id=":397_0" function="internal">
        <lane id=":397_0_0" index="0" disallow="pedestrian tram rail_urban rail rail_electric rail_fast ship" speed="8.49" length="28.84" width="4.50" shape="315.11,461.18 286.27,461.18">
            <param key="signalID" value="555"/>
        </lane>
    </edge>
    <edge id=":397_1" function="internal">
        <lane id=":397_1_0" index="0" disallow="pedestrian tram rail_urban rail rail_electric rail_fast ship" speed="8.49" length="9.58" width="4.00" shape="315.11,461.18 308.05,460.18 305.94,458.93">
            <param key="signalID" value="553"/>
        </lane>
    </edge>
    <edge id=":397_6" function="internal">
        <lane id=":397_6_0" index="0" disallow="pedestrian tram rail_urban rail rail_electric rail_fast ship" speed="8.49" length="16.31" width="4.00" shape="305.94,458.93 303.01,457.19 299.97,452.20 298.95,445.21">
            <param key="signalID" value="553"/>
        </lane>
    </edge>
    <edge id=":397_2" function="internal">
        <lane id=":397_2_0" index="0" disallow="pedestrian tram rail_urban rail rail_electric rail_fast ship" speed="8.49" length="19.45" width="3.50" shape="302.95,445.21 303.72,450.44 306.00,454.19 309.80,456.43 315.11,457.18">
            <param key="signalID" value="554"/>
        </lane>
    </edge>
    <edge id=":397_3" function="internal">
        <lane id=":397_3_0" index="0" disallow="pedestrian tram rail_urban rail rail_electric rail_fast ship" speed="8.49" length="26.35" width="4.50" shape="302.95,445.21 301.92,452.19 298.80,457.19 293.58,460.18 286.27,461.18">
            <param key="signalID" value="552"/>
        </lane>
    </edge>
    <edge id=":397_4" function="internal">
        <lane id=":397_4_0" index="0" disallow="pedestrian tram rail_urban rail rail_electric rail_fast ship" speed="8.49" length="19.89" width="4.00" shape="286.27,457.18 291.83,456.43 295.79,454.19 298.17,450.45 298.95,445.21">
            <param key="signalID" value="554"/>
        </lane>
    </edge>
    <edge id=":397_5" function="internal">
        <lane id=":397_5_0" index="0" disallow="pedestrian tram rail_urban rail rail_electric rail_fast ship" speed="8.49" length="28.84" width="3.50" shape="286.27,457.18 315.11,457.18">
            <param key="signalID" value="554"/>
        </lane>
    </edge>
    <edge id=":4.begin_0" function="internal">
        <lane id=":4.begin_0_0" index="0" disallow="pedestrian tram rail_urban rail rail_electric rail_fast ship" speed="4.56" length="7.30" width="5.00" shape="478.97,537.59 477.73,539.47 476.48,540.10 475.23,539.48 473.97,537.61"/>
    </edge>
    <edge id=":428_0" function="internal">
        <lane id=":428_0_0" index="0" disallow="pedestrian tram rail_urban rail rail_electric rail_fast ship" speed="8.49" length="8.96" width="4.00" shape="298.72,351.40 298.69,342.44"/>
    </edge>
    <edge id=":428_1" function="internal">
        <lane id=":428_1_0" index="0" disallow="pedestrian tram rail_urban rail rail_electric rail_fast ship" speed="8.49" length="8.96" width="4.00" shape="302.69,342.44 302.72,351.40"/>
    </edge>
    <edge id=":437_0" function="internal">
        <lane id=":437_0_0" index="0" disallow="pedestrian tram rail_urban rail rail_electric rail_fast ship" speed="8.49" length="20.25" width="4.00" shape="298.04,73.30 297.23,67.89 294.84,64.02 290.86,61.70 285.29,60.93">
            <param key="signalID" value="519"/>
        </lane>
    </edge>
    <edge id=":437_1" function="internal">
        <lane id=":437_1_0" index="0" disallow="pedestrian tram rail_urban rail rail_electric rail_fast ship" speed="8.49" length="26.35" width="4.00" shape="298.04,73.30 299.04,66.14 302.09,61.02 307.18,57.95 314.32,56.93">
            <param key="signalID" value="518"/>
        </lane>
    </edge>
    <edge id=":437_2" function="internal">
        <lane id=":437_2_0" index="0" disallow="pedestrian tram rail_urban rail rail_electric rail_fast ship" speed="8.49" length="19.88" width="4.00" shape="314.32,60.93 308.94,61.70 305.10,64.02 302.80,67.89 302.04,73.30">
            <param key="signalID" value="523"/>
        </lane>
    </edge>
    <edge id=":437_3" function="internal">
        <lane id=":437_3_0" index="0" disallow="pedestrian tram rail_urban rail rail_electric rail_fast ship" speed="8.49" length="29.03" width="4.00" shape="314.32,60.93 285.29,60.93">
            <param key="signalID" value="523"/>
        </lane>
    </edge>
    <edge id=":437_4" function="internal">
        <lane id=":437_4_0" index="0" disallow="pedestrian tram rail_urban rail rail_electric rail_fast ship" speed="8.49" length="29.03" width="4.00" shape="285.29,56.93 314.32,56.93">
            <param key="signalID" value="518"/>
        </lane>
    </edge>
    <edge id=":437_5" function="internal">
        <lane id=":437_5_0" index="0" disallow="pedestrian tram rail_urban rail rail_electric rail_fast ship" speed="8.49" length="9.32" width="4.00" shape="285.29,56.93 292.60,57.95 294.27,58.93"/>
    </edge>
    <edge id=":437_6" function="internal">
        <lane id=":437_6_0" index="0" disallow="pedestrian tram rail_urban rail rail_electric rail_fast ship" speed="8.49" length="17.37" width="4.00" shape="294.27,58.93 297.83,61.02 300.98,66.14 302.04,73.30"/>
    </edge>
    <edge id=":476_0" function="internal">
        <lane id=":476_0_0" index="0" disallow="pedestrian tram rail_urban rail rail_electric rail_fast ship" speed="8.49" length="8.03" width="4.00" shape="204.73,60.93 196.70,60.93"/>
    </edge>
    <edge id=":476_1" function="internal">
        <lane id=":476_1_0" index="0" disallow="pedestrian tram rail_urban rail rail_electric rail_fast ship" speed="8.49" length="8.03" width="4.00" shape="196.70,56.93 204.73,56.93"/>
    </edge>
    <edge id=":485_0" function="internal">
        <lane id=":485_0_0" index="0" disallow="pedestrian tram rail_urban rail rail_electric rail_fast ship" speed="8.49" length="11.05" width="5.00" shape="409.97,261.43 398.92,261.43"/>
    </edge>
    <edge id=":485_1" function="internal">
        <lane id=":485_1_0" index="0" disallow="pedestrian tram rail_urban rail rail_electric rail_fast ship" speed="8.49" length="11.05" width="5.00" shape="398.92,256.43 409.97,256.43"/>
    </edge>
    <edge id=":492_0" function="internal">
        <lane id=":492_0_0" index="0" disallow="pedestrian tram rail_urban rail rail_electric rail_fast ship" speed="8.49" length="8.74" width="5.00" shape="199.00,261.43 190.26,261.43"/>
    </edge>
    <edge id=":492_1" function="internal">
        <lane id=":492_1_0" index="0" disallow="pedestrian tram rail_urban rail rail_electric rail_fast ship" speed="8.49" length="8.74" width="5.00" shape="190.26,256.43 199.00,256.43"/>
    </edge>
    <edge id=":499_0" function="internal">
        <lane id=":499_0_0" index="0" disallow="pedestrian tram rail_urban rail rail_electric rail_fast ship" speed="8.49" length="9.50" width="4.50" shape="97.75,355.10 97.75,345.60"/>
    </edge>
    <edge id=":499_1" function="internal">
        <lane id=":499_1_0" index="0" disallow="pedestrian tram rail_urban rail rail_electric rail_fast ship" speed="8.49" length="9.50" width="4.50" shape="102.25,345.60 102.25,355.10"/>
    </edge>
    <edge id=":69_0" function="internal">
        <lane id=":69_0_0" index="0" disallow="pedestrian tram rail_urban rail rail_electric rail_fast ship" speed="8.49" length="7.50" width="4.00" shape="298.27,169.84 298.25,162.34"/>
    </edge>
    <edge id=":69_1" function="internal">
        <lane id=":69_1_0" index="0" disallow="pedestrian tram rail_urban rail rail_electric rail_fast ship" speed="8.49" length="7.50" width="4.00" shape="302.25,162.34 302.27,169.84"/>
    </edge>
    <edge id=":7.end_0" function="internal">
        <lane id=":7.end_0_0" index="0" disallow="pedestrian tram rail_urban rail rail_electric rail_fast ship" speed="4.56" length="7.30" width="5.00" shape="561.49,-0.63 563.17,-2.13 564.54,-2.42 565.59,-1.50 566.33,0.63"/>
    </edge>
    <edge id=":78_0" function="internal">
        <lane id=":78_0_0" index="0" disallow="pedestrian tram rail_urban rail rail_electric rail_fast ship" speed="8.49" length="20.65" width="4.00" shape="97.75,73.70 96.95,68.11 94.54,64.12 90.53,61.73 84.91,60.93">
            <param key="signalID" value="517"/>
        </lane>
    </edge>
    <edge id=":78_1" function="internal">
        <lane id=":78_1_0" index="0" disallow="pedestrian tram rail_urban rail rail_electric rail_fast ship" speed="8.49" length="27.44" width="4.00" shape="97.75,73.70 98.83,66.36 102.06,61.12 107.46,57.98 115.01,56.93">
            <param key="signalID" value="516"/>
        </lane>
    </edge>
    <edge id=":78_2" function="internal">
        <lane id=":78_2_0" index="0" disallow="pedestrian tram rail_urban rail rail_electric rail_fast ship" speed="8.49" length="20.59" width="4.50" shape="115.01,60.93 109.43,61.73 105.44,64.12 103.05,68.11 102.25,73.70">
            <param key="signalID" value="515"/>
        </lane>
    </edge>
    <edge id=":78_3" function="internal">
        <lane id=":78_3_0" index="0" disallow="pedestrian tram rail_urban rail rail_electric rail_fast ship" speed="8.49" length="30.10" width="4.00" shape="115.01,60.93 84.91,60.93">
            <param key="signalID" value="515"/>
        </lane>
    </edge>
    <edge id=":78_4" function="internal">
        <lane id=":78_4_0" index="0" disallow="pedestrian tram rail_urban rail rail_electric rail_fast ship" speed="8.49" length="30.10" width="4.00" shape="84.91,56.93 115.01,56.93">
            <param key="signalID" value="512"/>
        </lane>
    </edge>
    <edge id=":78_5" function="internal">