<?xml version="1.0" encoding="UTF-8"?>

<!-- generated on 2021-10-27 02:15:16 by Eclipse SUMO netconvert Version 1.10.0
<configuration xmlns:xsi="http://www.w3.org/2001/XMLSchema-instance" xsi:noNamespaceSchemaLocation="http://sumo.dlr.de/xsd/netconvertConfiguration.xsd">

    <input>
        <opendrive-files value="xords/VenturaFRW.xodr"/>
    </input>

    <output>
        <output-file value="nets/VenturaFRW.net.xml"/>
    </output>

    <processing>
        <geometry.max-grade.fix value="false"/>
    </processing>

    <tls_building>
        <tls.left-green.time value="0"/>
    </tls_building>

    <junctions>
        <rectangular-lane-cut value="true"/>
    </junctions>

    <report>
        <aggregate-warnings value="5"/>
    </report>

</configuration>
-->

<net version="1.9" junctionCornerDetail="5" rectangularLaneCut="true" limitTurnSpeed="5.50" xmlns:xsi="http://www.w3.org/2001/XMLSchema-instance" xsi:noNamespaceSchemaLocation="http://sumo.dlr.de/xsd/net_file.xsd">

    <location netOffset="-143.16,-245.17" convBoundary="0.00,0.00,819.04,223.93" origBoundary="0.000000,0.000000,0.000000,0.000000" projParameter="+proj=tmerc +lat_0=34.15624859268149 +lon_0=-118.4687494726721 +k=1 +x_0=0 +y_0=0 +datum=WGS84 +units=m +geoidgrids=egm96_15.gtx +vunits=m +no_defs "/>

    <type id="bidirectional" priority="1" speed="1.39" disallow="pedestrian tram rail_urban rail rail_electric rail_fast ship" width="3.65"/>
    <type id="border" priority="0" speed="1.39" disallow="all" discard="1" width="0.10"/>
    <type id="driving" priority="1" speed="13.89" disallow="pedestrian tram rail_urban rail rail_electric rail_fast ship" width="3.65"/>
    <type id="entry" priority="1" speed="22.22" disallow="pedestrian tram rail_urban rail rail_electric rail_fast ship" width="3.65"/>
    <type id="exit" priority="1" speed="22.22" disallow="pedestrian tram rail_urban rail rail_electric rail_fast ship" width="3.65"/>
    <type id="median" priority="0" speed="1.39" disallow="all" discard="1" width="0.10"/>
    <type id="mwyEntry" priority="1" speed="22.22" allow="private emergency authority army vip passenger hov taxi bus coach delivery truck trailer motorcycle evehicle custom1 custom2" width="3.65"/>
    <type id="mwyExit" priority="1" speed="22.22" allow="private emergency authority army vip passenger hov taxi bus coach delivery truck trailer motorcycle evehicle custom1 custom2" width="3.65"/>
    <type id="none" priority="0" speed="1.39" disallow="all" discard="1" width="1.00"/>
    <type id="offRamp" priority="1" speed="22.22" allow="private emergency authority army vip passenger hov taxi bus coach delivery truck trailer motorcycle evehicle custom1 custom2" width="3.65"/>
    <type id="onRamp" priority="1" speed="22.22" allow="private emergency authority army vip passenger hov taxi bus coach delivery truck trailer motorcycle evehicle custom1 custom2" width="3.65"/>
    <type id="parking" priority="1" speed="1.39" disallow="pedestrian tram rail_urban rail rail_electric rail_fast ship" width="2.50"/>
    <type id="rail" priority="3" speed="33.33" allow="rail_urban rail rail_electric rail_fast" width="3.65"/>
    <type id="restricted" priority="0" speed="13.89" disallow="all" width="3.65"/>
    <type id="roadWorks" priority="0" speed="1.39" allow="authority" width="3.65"/>
    <type id="shoulder" priority="0" speed="1.39" disallow="all" discard="1" width="1.00"/>
    <type id="special1" priority="1" speed="22.22" allow="custom1" discard="1" width="3.65"/>
    <type id="special2" priority="1" speed="22.22" allow="custom2" discard="1" width="3.65"/>
    <type id="special3" priority="1" speed="22.22" allow="custom1 custom2" discard="1" width="3.65"/>
    <type id="stop" priority="1" speed="13.89" disallow="pedestrian tram rail_urban rail rail_electric rail_fast ship" width="3.65"/>
    <type id="tram" priority="2" speed="13.89" allow="tram" width="3.65"/>

    <edge id=":105_0" function="internal">
        <lane id=":105_0_0" index="0" disallow="pedestrian tram rail_urban rail rail_electric rail_fast ship" speed="17.88" length="41.43" width="3.50" shape="85.46,82.91,209.43 85.34,41.49,209.99"/>
        <lane id=":105_0_1" index="1" disallow="pedestrian tram rail_urban rail rail_electric rail_fast ship" speed="17.88" length="41.43" width="3.50" shape="88.96,82.90,209.43 88.84,41.48,209.99"/>
    </edge>
    <edge id=":105_2" function="internal">
        <lane id=":105_2_0" index="0" disallow="pedestrian tram rail_urban rail rail_electric rail_fast ship" speed="12.85" length="16.03" width="3.50" shape="88.96,82.90,209.43 90.77,72.08,209.55 94.16,68.32,209.61"/>
    </edge>
    <edge id=":105_3" function="internal">
        <lane id=":105_3_0" index="0" disallow="pedestrian tram rail_urban rail rail_electric rail_fast ship" speed="17.88" length="41.43" width="3.50" shape="92.46,82.89,209.43 92.34,41.47,209.99"/>
    </edge>
    <edge id=":105_4" function="internal">
        <lane id=":105_4_0" index="0" disallow="pedestrian tram rail_urban rail rail_electric rail_fast ship" speed="11.85" length="9.13" width="3.67" shape="92.46,82.89,209.43 94.08,74.06,209.55 94.18,73.95,209.55"/>
    </edge>
    <edge id=":105_9" function="internal">
        <lane id=":105_9_0" index="0" disallow="pedestrian tram rail_urban rail rail_electric rail_fast ship" speed="12.85" length="25.06" width="3.50" shape="94.16,68.32,209.61 96.25,66.01,209.64 105.32,63.69,209.75 117.90,64.08,209.89"/>
    </edge>
    <edge id=":105_10" function="internal">
        <lane id=":105_10_0" index="0" disallow="pedestrian tram rail_urban rail rail_electric rail_fast ship" speed="11.85" length="25.62" width="3.67" shape="94.18,73.95,209.55 98.90,69.13,209.64 106.78,67.28,209.75 117.55,67.64,209.89"/>
    </edge>
    <edge id=":105_5" function="internal">
        <lane id=":105_5_0" index="0" disallow="pedestrian tram rail_urban rail rail_electric rail_fast ship" speed="11.92" length="30.17" width="3.50" shape="102.84,41.43,209.99 103.80,50.79,209.96 106.63,57.68,209.94 111.33,62.11,209.92 117.90,64.08,209.89"/>
    </edge>
    <edge id=":105_6" function="internal">
        <lane id=":105_6_0" index="0" disallow="pedestrian tram rail_urban rail rail_electric rail_fast ship" speed="17.88" length="41.43" width="3.50" shape="102.84,41.43,209.99 102.96,82.86,209.43"/>
        <lane id=":105_6_1" index="1" disallow="pedestrian tram rail_urban rail rail_electric rail_fast ship" speed="17.88" length="41.43" width="3.50" shape="99.34,41.44,209.99 99.46,82.87,209.43"/>
        <lane id=":105_6_2" index="2" disallow="pedestrian tram rail_urban rail rail_electric rail_fast ship" speed="17.88" length="41.43" width="3.50" shape="95.84,41.45,209.99 95.96,82.88,209.43"/>
    </edge>
    <edge id=":13.212.97_0" function="internal">
        <lane id=":13.212.97_0_0" index="0" disallow="pedestrian tram rail_urban rail rail_electric rail_fast ship" speed="29.06" length="0.10" width="3.50" shape="617.50,120.23,207.79 617.50,120.23,207.79"/>
        <lane id=":13.212.97_0_1" index="1" disallow="pedestrian tram rail_urban rail rail_electric rail_fast ship" speed="29.06" length="0.10" width="3.50" shape="617.14,116.75,207.79 617.14,116.75,207.79"/>
        <lane id=":13.212.97_0_2" index="2" disallow="pedestrian tram rail_urban rail rail_electric rail_fast ship" speed="29.06" length="0.10" width="3.50" shape="616.77,113.27,207.79 616.77,113.27,207.79"/>
        <lane id=":13.212.97_0_3" index="3" disallow="pedestrian tram rail_urban rail rail_electric rail_fast ship" speed="29.06" length="0.10" width="3.50" shape="616.41,109.79,207.79 616.41,109.79,207.79"/>
        <lane id=":13.212.97_0_4" index="4" disallow="pedestrian tram rail_urban rail rail_electric rail_fast ship" speed="29.06" length="0.10" width="3.50" shape="616.04,106.31,207.79 616.04,106.31,207.79"/>
        <lane id=":13.212.97_0_5" index="5" disallow="pedestrian tram rail_urban rail rail_electric rail_fast ship" speed="29.06" length="0.10" width="3.50" shape="615.68,102.83,207.79 615.68,102.83,207.79"/>
    </edge>
    <edge id=":13.212.97_6" function="internal">
        <lane id=":13.212.97_6_0" index="0" disallow="pedestrian tram rail_urban rail rail_electric rail_fast ship" speed="29.06" length="0.10" width="3.50" shape="613.49,81.94,207.79 613.49,81.94,207.79"/>
        <lane id=":13.212.97_6_1" index="1" disallow="pedestrian tram rail_urban rail rail_electric rail_fast ship" speed="29.06" length="0.10" width="3.50" shape="613.86,85.42,207.79 613.86,85.42,207.79"/>
        <lane id=":13.212.97_6_2" index="2" disallow="pedestrian tram rail_urban rail rail_electric rail_fast ship" speed="29.06" length="0.10" width="3.50" shape="614.22,88.90,207.79 614.22,88.90,207.79"/>
        <lane id=":13.212.97_6_3" index="3" disallow="pedestrian tram rail_urban rail rail_electric rail_fast ship" speed="29.06" length="0.10" width="3.50" shape="614.59,92.38,207.79 614.59,92.38,207.79"/>
        <lane id=":13.212.97_6_4" index="4" disallow="pedestrian tram rail_urban rail rail_electric rail_fast ship" speed="29.06" length="0.10" width="3.50" shape="614.95,95.87,207.79 614.95,95.87,207.79"/>
        <lane id=":13.212.97_6_5" index="5" disallow="pedestrian tram rail_urban rail rail_electric rail_fast ship" speed="29.06" length="0.10" width="3.50" shape="615.32,99.35,207.79 615.32,99.35,207.79"/>
    </edge>
    <edge id=":13.begin_0" function="internal">
        <lane id=":13.begin_0_0" index="0" disallow="pedestrian tram rail_urban rail rail_electric rail_fast ship" speed="3.82" length="5.11" width="3.50" shape="818.46,43.99,209.33 819.99,44.38,209.33 820.69,45.06,209.33 820.57,46.03,209.33 819.61,47.29,209.33"/>
    </edge>
    <edge id=":130_0" function="internal">
        <lane id=":130_0_0" index="0" disallow="pedestrian tram rail_urban rail rail_electric rail_fast ship" speed="29.06" length="84.30" width="3.50" shape="154.45,135.18,215.75 71.96,152.44,215.52"/>
        <lane id=":130_0_1" index="1" disallow="pedestrian tram rail_urban rail rail_electric rail_fast ship" speed="29.06" length="84.30" width="3.50" shape="153.80,131.74,215.75 71.26,149.01,215.52"/>
    </edge>
    <edge id=":130_2" function="internal">
        <lane id=":130_2_0" index="0" disallow="pedestrian tram rail_urban rail rail_electric rail_fast ship" speed="29.06" length="86.50" width="3.50" shape="153.14,128.31,215.75 130.13,132.33,215.76 106.73,135.76,215.77 85.11,138.32,215.78 67.44,139.73,215.79"/>
        <lane id=":130_2_1" index="1" disallow="pedestrian tram rail_urban rail rail_electric rail_fast ship" speed="29.06" length="86.02" width="3.50" shape="152.48,124.87,215.75 129.54,128.89,215.76 106.31,132.29,215.77 84.86,134.83,215.78 67.26,136.24,215.79"/>
        <lane id=":130_2_2" index="2" disallow="pedestrian tram rail_urban rail rail_electric rail_fast ship" speed="29.06" length="85.53" width="3.50" shape="151.82,121.43,215.75 128.96,125.44,215.76 105.90,128.83,215.77 84.61,131.34,215.78 67.09,132.74,215.79"/>
        <lane id=":130_2_3" index="3" disallow="pedestrian tram rail_urban rail rail_electric rail_fast ship" speed="29.06" length="85.05" width="3.50" shape="151.16,117.99,215.75 128.38,121.99,215.76 105.48,125.36,215.77 84.36,127.86,215.78 66.91,129.25,215.79"/>
    </edge>
    <edge id=":16.15.95_0" function="internal">
        <lane id=":16.15.95_0_0" index="0" disallow="pedestrian tram rail_urban rail rail_electric rail_fast ship" speed="29.06" length="0.10" width="3.50" shape="377.79,127.32,211.29 377.79,127.32,211.29"/>
        <lane id=":16.15.95_0_1" index="1" disallow="pedestrian tram rail_urban rail rail_electric rail_fast ship" speed="29.06" length="0.10" width="3.50" shape="377.76,123.82,211.29 377.76,123.82,211.29"/>
        <lane id=":16.15.95_0_2" index="2" disallow="pedestrian tram rail_urban rail rail_electric rail_fast ship" speed="29.06" length="0.10" width="3.50" shape="377.72,120.32,211.29 377.72,120.32,211.29"/>
        <lane id=":16.15.95_0_3" index="3" disallow="pedestrian tram rail_urban rail rail_electric rail_fast ship" speed="29.06" length="0.10" width="3.50" shape="377.69,116.82,211.29 377.69,116.82,211.29"/>
        <lane id=":16.15.95_0_4" index="4" disallow="pedestrian tram rail_urban rail rail_electric rail_fast ship" speed="29.06" length="0.10" width="3.50" shape="377.65,113.33,211.29 377.65,113.33,211.29"/>
        <lane id=":16.15.95_0_5" index="5" disallow="pedestrian tram rail_urban rail rail_electric rail_fast ship" speed="29.06" length="0.10" width="3.50" shape="377.61,109.83,211.29 377.61,109.83,211.29"/>
    </edge>
    <edge id=":16.15.95_6" function="internal">
        <lane id=":16.15.95_6_0" index="0" disallow="pedestrian tram rail_urban rail rail_electric rail_fast ship" speed="29.06" length="0.10" width="3.50" shape="377.40,88.83,211.29 377.40,88.83,211.29"/>
        <lane id=":16.15.95_6_1" index="1" disallow="pedestrian tram rail_urban rail rail_electric rail_fast ship" speed="29.06" length="0.10" width="3.50" shape="377.44,92.33,211.29 377.44,92.33,211.29"/>
        <lane id=":16.15.95_6_2" index="2" disallow="pedestrian tram rail_urban rail rail_electric rail_fast ship" speed="29.06" length="0.10" width="3.50" shape="377.47,95.83,211.29 377.47,95.83,211.29"/>
        <lane id=":16.15.95_6_3" index="3" disallow="pedestrian tram rail_urban rail rail_electric rail_fast ship" speed="29.06" length="0.10" width="3.50" shape="377.51,99.33,211.29 377.51,99.33,211.29"/>
        <lane id=":16.15.95_6_4" index="4" disallow="pedestrian tram rail_urban rail rail_electric rail_fast ship" speed="29.06" length="0.10" width="3.50" shape="377.54,102.83,211.29 377.54,102.83,211.29"/>
        <lane id=":16.15.95_6_5" index="5" disallow="pedestrian tram rail_urban rail rail_electric rail_fast ship" speed="29.06" length="0.10" width="3.50" shape="377.58,106.33,211.29 377.58,106.33,211.29"/>
    </edge>
    <edge id=":19.0.67_0" function="internal">
        <lane id=":19.0.67_0_0" index="0" disallow="pedestrian tram rail_urban rail rail_electric rail_fast ship" speed="17.88" length="5.32" width="3.50" shape="258.91,145.61,209.00 253.61,146.06,208.83"/>
    </edge>
    <edge id=":19.3.02_0" function="internal">
        <lane id=":19.3.02_0_0" index="0" allow="emergency authority" speed="17.88" length="0.82" width="3.50" shape="253.64,148.67,208.83 253.14,149.61,208.81"/>
        <lane id=":19.3.02_0_1" index="1" disallow="pedestrian tram rail_urban rail rail_electric rail_fast ship" speed="17.88" length="0.82" width="3.50" shape="253.42,146.08,208.83 252.84,146.12,208.81"/>
    </edge>
    <edge id=":2.11.45_0" function="internal">
        <lane id=":2.11.45_0_0" index="0" disallow="pedestrian tram rail_urban rail rail_electric rail_fast ship" speed="17.88" length="7.97" width="3.50" shape="236.87,74.30,212.06 239.16,74.47,212.13 240.65,75.14,212.19 242.15,75.94,212.24 244.43,76.48,212.31"/>
    </edge>
    <edge id=":2.20.73_0" function="internal">
        <lane id=":2.20.73_0_0" index="0" disallow="pedestrian tram rail_urban rail rail_electric rail_fast ship" speed="17.88" length="3.43" width="3.50" shape="228.56,73.63,211.79 231.92,74.93,211.90"/>
        <lane id=":2.20.73_0_1" index="1" allow="emergency authority" speed="17.88" length="3.43" width="1.78" shape="229.18,77.16,211.79 230.13,77.14,211.82 230.78,77.35,211.84 231.43,77.55,211.86 232.37,77.54,211.90"/>
    </edge>
    <edge id=":23.19_0" function="internal">
        <lane id=":23.19_0_0" index="0" disallow="pedestrian tram rail_urban rail rail_electric rail_fast ship" speed="17.88" length="2.67" width="3.50" shape="257.52,147.73,208.95 259.11,145.59,209.00"/>
    </edge>
    <edge id=":25_0" function="internal">
        <lane id=":25_0_0" index="0" disallow="pedestrian tram rail_urban rail rail_electric rail_fast ship" speed="29.06" length="125.50" width="3.50" shape="377.60,127.33,211.30 252.12,128.60,213.00"/>
        <lane id=":25_0_1" index="1" disallow="pedestrian tram rail_urban rail rail_electric rail_fast ship" speed="29.06" length="125.50" width="3.50" shape="377.57,123.83,211.30 252.08,125.10,213.00"/>
        <lane id=":25_0_2" index="2" disallow="pedestrian tram rail_urban rail rail_electric rail_fast ship" speed="29.06" length="125.50" width="3.50" shape="377.53,120.33,211.30 252.04,121.60,213.00"/>
        <lane id=":25_0_3" index="3" disallow="pedestrian tram rail_urban rail rail_electric rail_fast ship" speed="29.06" length="125.50" width="3.50" shape="377.49,116.83,211.30 252.01,118.10,213.00"/>
        <lane id=":25_0_4" index="4" disallow="pedestrian tram rail_urban rail rail_electric rail_fast ship" speed="29.06" length="125.50" width="3.50" shape="377.46,113.33,211.30 251.97,114.60,213.00"/>
        <lane id=":25_0_5" index="5" disallow="pedestrian tram rail_urban rail rail_electric rail_fast ship" speed="29.06" length="125.50" width="3.50" shape="377.42,109.83,211.30 251.94,111.10,213.00"/>
    </edge>
    <edge id=":25_6" function="internal">
        <lane id=":25_6_0" index="0" disallow="pedestrian tram rail_urban rail rail_electric rail_fast ship" speed="23.47" length="126.39" width="3.50" shape="251.41,77.17,212.50 268.94,79.24,212.33 304.93,83.29,211.99 345.60,87.20,211.60 377.21,88.83,211.30"/>
    </edge>
    <edge id=":25_7" function="internal">
        <lane id=":25_7_0" index="0" disallow="pedestrian tram rail_urban rail rail_electric rail_fast ship" speed="29.06" length="125.50" width="3.50" shape="251.73,90.10,213.00 377.21,88.83,211.30"/>
        <lane id=":25_7_1" index="1" disallow="pedestrian tram rail_urban rail rail_electric rail_fast ship" speed="29.06" length="125.50" width="3.50" shape="251.76,93.60,213.00 377.25,92.33,211.30"/>
        <lane id=":25_7_2" index="2" disallow="pedestrian tram rail_urban rail rail_electric rail_fast ship" speed="29.06" length="125.50" width="3.50" shape="251.80,97.10,213.00 377.28,95.83,211.30"/>
        <lane id=":25_7_3" index="3" disallow="pedestrian tram rail_urban rail rail_electric rail_fast ship" speed="29.06" length="125.50" width="3.50" shape="251.83,100.60,213.00 377.32,99.33,211.30"/>
        <lane id=":25_7_4" index="4" disallow="pedestrian tram rail_urban rail rail_electric rail_fast ship" speed="29.06" length="125.50" width="3.50" shape="251.87,104.10,213.00 377.35,102.83,211.30"/>
        <lane id=":25_7_5" index="5" disallow="pedestrian tram rail_urban rail rail_electric rail_fast ship" speed="29.06" length="125.50" width="3.50" shape="251.90,107.60,213.00 377.39,106.33,211.30"/>
    </edge>
    <edge id=":4.107.52_0" function="internal">
        <lane id=":4.107.52_0_0" index="0" disallow="pedestrian tram rail_urban rail rail_electric rail_fast ship" speed="29.06" length="3.01" width="3.50" shape="93.87,83.73,215.90 96.84,84.16,215.88"/>
        <lane id=":4.107.52_0_1" index="1" disallow="pedestrian tram rail_urban rail rail_electric rail_fast ship" speed="29.06" length="3.01" width="3.50" shape="93.59,87.21,215.90 96.57,87.65,215.88"/>
        <lane id=":4.107.52_0_2" index="2" disallow="pedestrian tram rail_urban rail rail_electric rail_fast ship" speed="29.06" length="3.01" width="3.50" shape="93.32,90.70,215.90 96.29,91.14,215.88"/>
        <lane id=":4.107.52_0_3" index="3" disallow="pedestrian tram rail_urban rail rail_electric rail_fast ship" speed="29.06" length="3.01" width="3.50" shape="93.04,94.19,215.90 96.02,94.63,215.88"/>
        <lane id=":4.107.52_0_4" index="4" disallow="pedestrian tram rail_urban rail rail_electric rail_fast ship" speed="29.06" length="3.01" width="3.50" shape="92.77,97.68,215.90 95.75,98.12,215.88"/>
        <lane id=":4.107.52_0_5" index="5" disallow="pedestrian tram rail_urban rail rail_electric rail_fast ship" speed="29.06" length="3.01" width="3.50" shape="92.50,101.17,215.90 95.47,101.61,215.88"/>
        <lane id=":4.107.52_0_6" index="6" allow="emergency authority" speed="29.06" length="3.01" width="1.80" shape="92.28,103.91,215.90 95.27,104.25,215.88"/>
    </edge>
    <edge id=":46_0" function="internal">
        <lane id=":46_0_0" index="0" disallow="pedestrian tram rail_urban rail rail_electric rail_fast ship" speed="17.88" length="41.94" width="3.50" shape="87.56,185.49,208.35 85.64,143.50,208.74"/>
        <lane id=":46_0_1" index="1" disallow="pedestrian tram rail_urban rail rail_electric rail_fast ship" speed="17.88" length="41.94" width="3.50" shape="91.06,185.38,208.35 89.14,143.49,208.74"/>
        <lane id=":46_0_2" index="2" disallow="pedestrian tram rail_urban rail rail_electric rail_fast ship" speed="17.88" length="41.94" width="3.50" shape="94.56,185.27,208.35 92.64,143.48,208.74"/>
    </edge>
    <edge id=":46_3" function="internal">
        <lane id=":46_3_0" index="0" disallow="pedestrian tram rail_urban rail rail_electric rail_fast ship" speed="12.36" length="32.67" width="3.50" shape="124.87,163.48,209.32 115.98,165.79,209.05 109.71,170.14,208.82 106.07,176.53,208.60 105.05,184.95,208.35"/>
    </edge>
    <edge id=":46_4" function="internal">
        <lane id=":46_4_0" index="0" disallow="pedestrian tram rail_urban rail rail_electric rail_fast ship" speed="13.83" length="48.55" width="3.50" shape="124.87,163.48,209.32 109.78,164.44,209.14 98.57,162.23,209.00 91.58,155.64,208.89 89.14,143.49,208.74"/>
        <lane id=":46_4_1" index="1" disallow="pedestrian tram rail_urban rail rail_electric rail_fast ship" speed="12.92" length="42.21" width="3.50" shape="124.43,160.00,209.32 111.14,160.89,209.14 101.15,159.11,209.00 94.85,153.65,208.89 92.64,143.48,208.74"/>
    </edge>
    <edge id=":46_6" function="internal">
        <lane id=":46_6_0" index="0" disallow="pedestrian tram rail_urban rail rail_electric rail_fast ship" speed="17.88" length="41.64" width="3.50" shape="103.14,143.45,208.74 105.05,184.95,208.35"/>
        <lane id=":46_6_1" index="1" disallow="pedestrian tram rail_urban rail rail_electric rail_fast ship" speed="17.88" length="41.64" width="3.50" shape="99.64,143.46,208.74 101.55,185.06,208.35"/>
        <lane id=":46_6_2" index="2" disallow="pedestrian tram rail_urban rail rail_electric rail_fast ship" speed="17.88" length="41.64" width="3.50" shape="96.14,143.47,208.74 98.05,185.17,208.35"/>
    </edge>
    <edge id=":5.end_0" function="internal">
        <lane id=":5.end_0_0" index="0" disallow="pedestrian tram rail_urban rail rail_electric rail_fast ship" speed="3.82" length="5.11" width="3.50" shape="99.25,223.88,207.95 98.42,225.22,207.95 97.56,225.68,207.95 96.67,225.27,207.95 95.76,223.99,207.95"/>
    </edge>
    <edge id=":75_0" function="internal">
        <lane id=":75_0_0" index="0" disallow="pedestrian tram rail_urban rail rail_electric rail_fast ship" speed="29.06" length="38.07" width="3.50" shape="240.40,128.72,213.00 203.03,128.40,213.76"/>
        <lane id=":75_0_1" index="1" disallow="pedestrian tram rail_urban rail rail_electric rail_fast ship" speed="29.06" length="38.07" width="3.50" shape="240.36,125.22,213.00 202.72,124.91,213.76"/>
        <lane id=":75_0_2" index="2" disallow="pedestrian tram rail_urban rail rail_electric rail_fast ship" speed="29.06" length="38.07" width="3.50" shape="240.33,121.72,213.00 202.41,121.43,213.76"/>
        <lane id=":75_0_3" index="3" disallow="pedestrian tram rail_urban rail rail_electric rail_fast ship" speed="29.06" length="38.07" width="3.50" shape="240.29,118.22,213.00 202.09,117.94,213.76"/>
        <lane id=":75_0_4" index="4" disallow="pedestrian tram rail_urban rail rail_electric rail_fast ship" speed="29.06" length="38.07" width="3.50" shape="240.25,114.72,213.00 201.78,114.46,213.76"/>
        <lane id=":75_0_5" index="5" disallow="pedestrian tram rail_urban rail rail_electric rail_fast ship" speed="29.06" length="38.07" width="3.50" shape="240.22,111.22,213.00 201.47,110.97,213.76"/>
    </edge>
    <edge id=":75_6" function="internal">
        <lane id=":75_6_0" index="0" disallow="pedestrian tram rail_urban rail rail_electric rail_fast ship" speed="29.06" length="41.16" width="3.50" shape="199.11,86.20,213.41 211.28,86.76,213.29 219.56,88.20,213.20 227.84,89.64,213.12 240.01,90.22,213.00"/>
        <lane id=":75_6_1" index="1" disallow="pedestrian tram rail_urban rail rail_electric rail_fast ship" speed="29.06" length="41.16" width="3.50" shape="199.15,89.70,213.41 211.32,90.26,213.29 219.59,91.70,213.20 227.87,93.14,213.12 240.04,93.72,213.00"/>
        <lane id=":75_6_2" index="2" disallow="pedestrian tram rail_urban rail rail_electric rail_fast ship" speed="29.06" length="41.16" width="3.50" shape="199.19,93.20,213.41 211.36,93.75,213.29 219.63,95.20,213.20 227.91,96.64,213.12 240.08,97.22,213.00"/>
        <lane id=":75_6_3" index="3" disallow="pedestrian tram rail_urban rail rail_electric rail_fast ship" speed="29.06" length="41.16" width="3.50" shape="199.23,96.70,213.41 211.40,97.25,213.29 219.67,98.70,213.20 227.95,100.14,213.12 240.11,100.72,213.00"/>
        <lane id=":75_6_4" index="4" disallow="pedestrian tram rail_urban rail rail_electric rail_fast ship" speed="29.06" length="41.16" width="3.50" shape="199.28,100.20,213.41 211.44,100.75,213.29 219.71,102.19,213.20 227.99,103.64,213.12 240.15,104.22,213.00"/>
        <lane id=":75_6_5" index="5" disallow="pedestrian tram rail_urban rail rail_electric rail_fast ship" speed="29.06" length="41.16" width="3.50" shape="199.32,103.70,213.41 211.48,104.25,213.29 219.75,105.69,213.20 228.02,107.14,213.12 240.18,107.72,213.00"/>
    </edge>
    <edge id=":82_0" function="internal">
        <lane id=":82_0_0" index="0" disallow="pedestrian tram rail_urban rail rail_electric rail_fast ship" speed="23.47" length="108.19" width="3.50" shape="501.94,128.52,209.14 394.03,136.15,210.77"/>
    </edge>
    <edge id=":82_1" function="internal">
        <lane id=":82_1_0" index="0" disallow="pedestrian tram rail_urban rail rail_electric rail_fast ship" speed="29.06" length="111.17" width="3.50" shape="501.94,128.52,209.14 390.27,127.20,210.91"/>
        <lane id=":82_1_1" index="1" disallow="pedestrian tram rail_urban rail rail_electric rail_fast ship" speed="29.06" length="111.17" width="3.50" shape="501.70,125.03,209.14 390.23,123.70,210.91"/>
        <lane id=":82_1_2" index="2" disallow="pedestrian tram rail_urban rail rail_electric rail_fast ship" speed="29.06" length="111.17" width="3.50" shape="501.45,121.54,209.14 390.20,120.20,210.91"/>
        <lane id=":82_1_3" index="3" disallow="pedestrian tram rail_urban rail rail_electric rail_fast ship" speed="29.06" length="111.17" width="3.50" shape="501.21,118.05,209.14 390.16,116.70,210.91"/>
        <lane id=":82_1_4" index="4" disallow="pedestrian tram rail_urban rail rail_electric rail_fast ship" speed="29.06" length="111.17" width="3.50" shape="500.96,114.56,209.14 390.13,113.20,210.91"/>
        <lane id=":82_1_5" index="5" disallow="pedestrian tram rail_urban rail rail_electric rail_fast ship" speed="29.06" length="111.17" width="3.50" shape="500.72,111.07,209.14 390.09,109.70,210.91"/>
    </edge>
    <edge id=":82_7" function="internal">
        <lane id=":82_7_0" index="0" disallow="pedestrian tram rail_urban rail rail_electric rail_fast ship" speed="29.06" length="218.10" width="3.50" shape="389.88,88.70,210.91 607.15,82.56,207.86"/>
        <lane id=":82_7_1" index="1" disallow="pedestrian tram rail_urban rail rail_electric rail_fast ship" speed="29.06" length="218.10" width="3.50" shape="389.91,92.20,210.91 607.47,86.04,207.86"/>
        <lane id=":82_7_2" index="2" disallow="pedestrian tram rail_urban rail rail_electric rail_fast ship" speed="29.06" length="218.10" width="3.50" shape="389.95,95.70,210.91 607.80,89.53,207.86"/>
        <lane id=":82_7_3" index="3" disallow="pedestrian tram rail_urban rail rail_electric rail_fast ship" speed="29.06" length="218.10" width="3.50" shape="389.98,99.20,210.91 608.12,93.01,207.86"/>
        <lane id=":82_7_4" index="4" disallow="pedestrian tram rail_urban rail rail_electric rail_fast ship" speed="29.06" length="218.10" width="3.50" shape="390.02,102.70,210.91 608.44,96.50,207.86"/>
        <lane id=":82_7_5" index="5" disallow="pedestrian tram rail_urban rail rail_electric rail_fast ship" speed="29.06" length="218.10" width="3.50" shape="390.05,106.20,210.91 608.77,99.98,207.86"/>
    </edge>
    <edge id=":9.begin_0" function="internal">
        <lane id=":9.begin_0_0" index="0" disallow="pedestrian tram rail_urban rail rail_electric rail_fast ship" speed="3.82" length="5.11" width="3.50" shape="92.21,0.01,210.53 93.08,-1.31,210.53 93.96,-1.75,210.53 94.83,-1.32,210.53 95.71,-0.01,210.53"/>
    </edge>

    <edge id="-0.0.00" from="75" to="130" priority="1" type="driving" shape="201.31,109.23,213.76 199.31,109.41,213.98 197.31,109.59,214.20 195.31,109.79,214.42 193.32,110.00,214.65 192.74,110.06,214.71 190.75,110.27,214.93 188.76,110.50,215.15 186.76,110.73,215.38 184.77,110.96,215.59 182.77,111.21,215.78 180.97,111.44,215.92 180.78,111.47,215.93 178.79,111.73,216.05 176.80,112.00,216.13 174.81,112.28,216.18 172.83,112.56,216.19 170.84,112.86,216.16 168.85,113.16,216.12 166.87,113.47,216.08 164.89,113.79,216.04 162.91,114.11,216.00 160.93,114.45,215.96 158.95,114.79,215.92 156.97,115.14,215.88 154.99,115.50,215.84 153.02,115.86,215.80 151.05,116.23,215.75 150.93,116.26,215.75 150.83,116.28,215.75">
        <lane id="-0.0.00_0" index="0" disallow="pedestrian tram rail_urban rail rail_electric rail_fast ship" speed="29.06" length="50.07" width="3.50" shape="203.03,128.40,213.76 201.08,128.58,213.98 199.16,128.76,214.20 197.25,128.94,214.42 195.30,129.15,214.65 194.79,129.20,214.71 192.85,129.41,214.93 190.93,129.62,215.15 189.01,129.84,215.38 187.09,130.07,215.59 185.17,130.31,215.78 183.41,130.54,215.92 183.29,130.55,215.93 181.35,130.81,216.05 179.43,131.07,216.13 177.52,131.34,216.18 175.61,131.61,216.19 173.70,131.89,216.16 171.79,132.18,216.12 169.88,132.48,216.08 167.97,132.79,216.04 166.07,133.10,216.00 164.17,133.42,215.96 162.26,133.75,215.92 160.36,134.09,215.88 158.46,134.43,215.84 156.56,134.78,215.80 154.55,135.16,215.75 154.45,135.18,215.75" type="driving"/>